/*---------------------------------------------------------------------------*\
  =========                 |
  \\      /  F ield         | OpenFOAM: The Open Source CFD Toolbox
   \\    /   O peration     | Website:  https://openfoam.org
    \\  /    A nd           | Version:  10
     \\/     M anipulation  |
\*---------------------------------------------------------------------------*/
Build  : 10-0347120b3b9d
Exec   : simpleFoam
Date   : Jul 02 2023
Time   : 19:55:11
Host   : "PGGO"
PID    : 14564
I/O    : uncollated
Case   : /home/pggo/OpenFOAM/pggo-10/Deep-Flow-Prediction-master/Test/airFoil2D
nProcs : 1
sigFpe : Enabling floating point exception trapping (FOAM_SIGFPE).
fileModificationChecking : Monitoring run-time modified files using timeStampMaster (fileModificationSkew 10)
allowSystemOperations : Allowing user-supplied system call operations

// * * * * * * * * * * * * * * * * * * * * * * * * * * * * * * * * * * * * * //
Create time

Create mesh for time = 0


SIMPLE: Convergence criteria found
        p: tolerance 0.001
        U: tolerance 0.001
        "omega|k": tolerance 0.0001

Reading field p

Reading field U

Reading/calculating face flux field phi

Selecting viscosity model constant
Selecting turbulence model type RAS
Selecting RAS turbulence model kOmegaSST
Selecting patchDistMethod meshWave
RAS
{
    model           kOmegaSST;
    turbulence      on;
    printCoeffs     on;
    alphaK1         0.85;
    alphaK2         1;
    alphaOmega1     0.5;
    alphaOmega2     0.856;
    gamma1          0.555556;
    gamma2          0.44;
    beta1           0.075;
    beta2           0.0828;
    betaStar        0.09;
    a1              0.31;
    b1              1;
    c1              10;
    F3              false;
}

No MRF models present

No fvModels present
No fvConstraints present

Starting time loop

wallShearStress wallShearStress:
    processing all wall patches

Time = 1s

smoothSolver:  Solving for Ux, Initial residual = 1, Final residual = 0.0300309, No Iterations 2
smoothSolver:  Solving for Uy, Initial residual = 1, Final residual = 0.0249483, No Iterations 2
GAMG:  Solving for p, Initial residual = 1, Final residual = 0.0982614, No Iterations 8
time step continuity errors : sum local = 0.00944424, global = -0.000968874, cumulative = -0.000968874
smoothSolver:  Solving for omega, Initial residual = 0.0224718, Final residual = 0.000689636, No Iterations 2
smoothSolver:  Solving for k, Initial residual = 1, Final residual = 0.0494865, No Iterations 2
ExecutionTime = 0.758113 s  ClockTime = 1 s

Time = 2s

smoothSolver:  Solving for Ux, Initial residual = 0.497314, Final residual = 0.0054071, No Iterations 4
smoothSolver:  Solving for Uy, Initial residual = 0.507104, Final residual = 0.0055879, No Iterations 4
GAMG:  Solving for p, Initial residual = 0.236456, Final residual = 0.0178939, No Iterations 4
time step continuity errors : sum local = 0.243989, global = 0.000118202, cumulative = -0.000850672
smoothSolver:  Solving for omega, Initial residual = 0.00868968, Final residual = 0.000386174, No Iterations 2
smoothSolver:  Solving for k, Initial residual = 0.299837, Final residual = 0.0215285, No Iterations 2
ExecutionTime = 1.07419 s  ClockTime = 1 s

Time = 3s

smoothSolver:  Solving for Ux, Initial residual = 0.0919525, Final residual = 0.000972145, No Iterations 4
smoothSolver:  Solving for Uy, Initial residual = 0.205864, Final residual = 0.00220125, No Iterations 4
GAMG:  Solving for p, Initial residual = 0.137336, Final residual = 0.0098124, No Iterations 5
time step continuity errors : sum local = 0.118225, global = 0.00657534, cumulative = 0.00572467
smoothSolver:  Solving for omega, Initial residual = 0.0118935, Final residual = 0.00109981, No Iterations 1
smoothSolver:  Solving for k, Initial residual = 0.167077, Final residual = 0.0142413, No Iterations 2
ExecutionTime = 1.32953 s  ClockTime = 2 s

Time = 4s

smoothSolver:  Solving for Ux, Initial residual = 0.0505884, Final residual = 0.000530709, No Iterations 4
smoothSolver:  Solving for Uy, Initial residual = 0.0989875, Final residual = 0.00102834, No Iterations 4
GAMG:  Solving for p, Initial residual = 0.714493, Final residual = 0.0654919, No Iterations 2
time step continuity errors : sum local = 0.164398, global = 0.00110709, cumulative = 0.00683176
smoothSolver:  Solving for omega, Initial residual = 0.00518047, Final residual = 0.000287171, No Iterations 2
smoothSolver:  Solving for k, Initial residual = 0.109541, Final residual = 0.00325772, No Iterations 3
ExecutionTime = 1.59458 s  ClockTime = 2 s

Time = 5s

smoothSolver:  Solving for Ux, Initial residual = 0.114095, Final residual = 0.0013589, No Iterations 4
smoothSolver:  Solving for Uy, Initial residual = 0.141312, Final residual = 0.00167922, No Iterations 4
GAMG:  Solving for p, Initial residual = 0.669835, Final residual = 0.0382395, No Iterations 3
time step continuity errors : sum local = 0.0844315, global = 0.00109169, cumulative = 0.00792346
smoothSolver:  Solving for omega, Initial residual = 0.00260926, Final residual = 0.000218929, No Iterations 2
smoothSolver:  Solving for k, Initial residual = 0.0767251, Final residual = 0.00272376, No Iterations 3
ExecutionTime = 1.8756 s  ClockTime = 2 s

Time = 6s

smoothSolver:  Solving for Ux, Initial residual = 0.140782, Final residual = 0.00179432, No Iterations 4
smoothSolver:  Solving for Uy, Initial residual = 0.189862, Final residual = 0.00221625, No Iterations 4
GAMG:  Solving for p, Initial residual = 0.371918, Final residual = 0.0310983, No Iterations 5
time step continuity errors : sum local = 0.0880283, global = -0.000716659, cumulative = 0.0072068
smoothSolver:  Solving for omega, Initial residual = 0.00176008, Final residual = 0.000165453, No Iterations 2
smoothSolver:  Solving for k, Initial residual = 0.0568475, Final residual = 0.00228178, No Iterations 3
ExecutionTime = 2.17463 s  ClockTime = 2 s

Time = 7s

smoothSolver:  Solving for Ux, Initial residual = 0.037445, Final residual = 0.000472382, No Iterations 4
smoothSolver:  Solving for Uy, Initial residual = 0.0760642, Final residual = 0.000890996, No Iterations 4
GAMG:  Solving for p, Initial residual = 0.323019, Final residual = 0.0308001, No Iterations 3
time step continuity errors : sum local = 0.137922, global = -0.00145593, cumulative = 0.00575087
smoothSolver:  Solving for omega, Initial residual = 0.00183611, Final residual = 0.000141617, No Iterations 2
smoothSolver:  Solving for k, Initial residual = 0.0453359, Final residual = 0.00193744, No Iterations 3
ExecutionTime = 2.49361 s  ClockTime = 3 s

Time = 8s

smoothSolver:  Solving for Ux, Initial residual = 0.0237506, Final residual = 0.00192559, No Iterations 2
smoothSolver:  Solving for Uy, Initial residual = 0.0635582, Final residual = 0.00574412, No Iterations 2
GAMG:  Solving for p, Initial residual = 0.285794, Final residual = 0.0195413, No Iterations 4
time step continuity errors : sum local = 0.0748612, global = -0.00139154, cumulative = 0.00435933
smoothSolver:  Solving for omega, Initial residual = 0.00174718, Final residual = 0.000114366, No Iterations 2
smoothSolver:  Solving for k, Initial residual = 0.0359853, Final residual = 0.00161676, No Iterations 3
ExecutionTime = 2.83191 s  ClockTime = 3 s

Time = 9s

smoothSolver:  Solving for Ux, Initial residual = 0.0308637, Final residual = 0.00241219, No Iterations 2
smoothSolver:  Solving for Uy, Initial residual = 0.0773929, Final residual = 0.00663151, No Iterations 2
GAMG:  Solving for p, Initial residual = 0.407551, Final residual = 0.0372658, No Iterations 4
time step continuity errors : sum local = 0.0761157, global = 0.000879023, cumulative = 0.00523835
smoothSolver:  Solving for omega, Initial residual = 0.00133239, Final residual = 0.000102363, No Iterations 2
smoothSolver:  Solving for k, Initial residual = 0.0301462, Final residual = 0.00146357, No Iterations 3
ExecutionTime = 3.15509 s  ClockTime = 3 s

Time = 10s

smoothSolver:  Solving for Ux, Initial residual = 0.0351531, Final residual = 0.00297791, No Iterations 2
smoothSolver:  Solving for Uy, Initial residual = 0.0708848, Final residual = 0.00705773, No Iterations 2
GAMG:  Solving for p, Initial residual = 0.360571, Final residual = 0.0202955, No Iterations 4
time step continuity errors : sum local = 0.05139, global = 0.00210858, cumulative = 0.00734693
smoothSolver:  Solving for omega, Initial residual = 0.00112786, Final residual = 9.58519e-05, No Iterations 2
smoothSolver:  Solving for k, Initial residual = 0.0260813, Final residual = 0.00125112, No Iterations 3
ExecutionTime = 3.46994 s  ClockTime = 4 s

Time = 11s

smoothSolver:  Solving for Ux, Initial residual = 0.0349678, Final residual = 0.000518865, No Iterations 4
smoothSolver:  Solving for Uy, Initial residual = 0.0590717, Final residual = 0.00077478, No Iterations 4
GAMG:  Solving for p, Initial residual = 0.279361, Final residual = 0.0246685, No Iterations 3
time step continuity errors : sum local = 0.0764336, global = 0.00455379, cumulative = 0.0119007
smoothSolver:  Solving for omega, Initial residual = 0.00131408, Final residual = 0.000119914, No Iterations 2
smoothSolver:  Solving for k, Initial residual = 0.0259305, Final residual = 0.00125904, No Iterations 3
ExecutionTime = 3.75044 s  ClockTime = 4 s

Time = 12s

smoothSolver:  Solving for Ux, Initial residual = 0.0316427, Final residual = 0.000480795, No Iterations 4
smoothSolver:  Solving for Uy, Initial residual = 0.0512814, Final residual = 0.000763138, No Iterations 4
GAMG:  Solving for p, Initial residual = 0.218744, Final residual = 0.0113685, No Iterations 7
time step continuity errors : sum local = 0.0341247, global = 0.000425938, cumulative = 0.0123267
smoothSolver:  Solving for omega, Initial residual = 0.000964234, Final residual = 8.36804e-05, No Iterations 2
smoothSolver:  Solving for k, Initial residual = 0.0252193, Final residual = 0.00101905, No Iterations 3
ExecutionTime = 4.09338 s  ClockTime = 4 s

Time = 13s

smoothSolver:  Solving for Ux, Initial residual = 0.0392815, Final residual = 0.000514376, No Iterations 4
smoothSolver:  Solving for Uy, Initial residual = 0.0745859, Final residual = 0.000949241, No Iterations 4
GAMG:  Solving for p, Initial residual = 0.165237, Final residual = 0.0136934, No Iterations 3
time step continuity errors : sum local = 0.0654822, global = -3.32221e-05, cumulative = 0.0122934
smoothSolver:  Solving for omega, Initial residual = 0.000976381, Final residual = 6.33639e-05, No Iterations 2
smoothSolver:  Solving for k, Initial residual = 0.0201095, Final residual = 0.00196011, No Iterations 2
ExecutionTime = 4.38132 s  ClockTime = 5 s

Time = 14s

smoothSolver:  Solving for Ux, Initial residual = 0.0272843, Final residual = 0.00263782, No Iterations 2
smoothSolver:  Solving for Uy, Initial residual = 0.075989, Final residual = 0.00084758, No Iterations 4
GAMG:  Solving for p, Initial residual = 0.148047, Final residual = 0.0108863, No Iterations 4
time step continuity errors : sum local = 0.0494016, global = -0.0036109, cumulative = 0.00868253
smoothSolver:  Solving for omega, Initial residual = 0.000796689, Final residual = 5.60669e-05, No Iterations 2
smoothSolver:  Solving for k, Initial residual = 0.0207147, Final residual = 0.00174035, No Iterations 2
ExecutionTime = 4.66787 s  ClockTime = 5 s

Time = 15s

smoothSolver:  Solving for Ux, Initial residual = 0.0210322, Final residual = 0.00209082, No Iterations 2
smoothSolver:  Solving for Uy, Initial residual = 0.0666038, Final residual = 0.00646287, No Iterations 2
GAMG:  Solving for p, Initial residual = 0.1599, Final residual = 0.0147678, No Iterations 4
time step continuity errors : sum local = 0.0650261, global = -0.00522355, cumulative = 0.00345898
smoothSolver:  Solving for omega, Initial residual = 0.000950183, Final residual = 5.76577e-05, No Iterations 2
smoothSolver:  Solving for k, Initial residual = 0.0212156, Final residual = 0.00179724, No Iterations 2
bounding k, min: -0.0261421 max: 588.692 average: 0.521533
ExecutionTime = 4.95127 s  ClockTime = 5 s

Time = 16s

smoothSolver:  Solving for Ux, Initial residual = 0.0142604, Final residual = 0.00128269, No Iterations 2
smoothSolver:  Solving for Uy, Initial residual = 0.0389677, Final residual = 0.00365732, No Iterations 2
GAMG:  Solving for p, Initial residual = 0.248291, Final residual = 0.0210064, No Iterations 4
time step continuity errors : sum local = 0.0584411, global = -0.00642068, cumulative = -0.0029617
smoothSolver:  Solving for omega, Initial residual = 0.000854223, Final residual = 5.73509e-05, No Iterations 2
smoothSolver:  Solving for k, Initial residual = 0.0186327, Final residual = 0.00179685, No Iterations 2
bounding k, min: -0.144729 max: 728.587 average: 0.548052
ExecutionTime = 5.19414 s  ClockTime = 5 s

Time = 17s

smoothSolver:  Solving for Ux, Initial residual = 0.0169525, Final residual = 0.0016076, No Iterations 2
smoothSolver:  Solving for Uy, Initial residual = 0.0372998, Final residual = 0.000453909, No Iterations 4
GAMG:  Solving for p, Initial residual = 0.473966, Final residual = 0.0466032, No Iterations 3
time step continuity errors : sum local = 0.055221, global = -0.00674796, cumulative = -0.00970966
smoothSolver:  Solving for omega, Initial residual = 0.000775995, Final residual = 6.54901e-05, No Iterations 2
smoothSolver:  Solving for k, Initial residual = 0.0225317, Final residual = 0.00215827, No Iterations 2
ExecutionTime = 5.43219 s  ClockTime = 6 s

Time = 18s

smoothSolver:  Solving for Ux, Initial residual = 0.01831, Final residual = 0.000254954, No Iterations 4
smoothSolver:  Solving for Uy, Initial residual = 0.0429867, Final residual = 0.000619749, No Iterations 4
GAMG:  Solving for p, Initial residual = 0.402122, Final residual = 0.0332061, No Iterations 4
time step continuity errors : sum local = 0.0385537, global = -0.00390515, cumulative = -0.0136148
smoothSolver:  Solving for omega, Initial residual = 0.000644549, Final residual = 4.77057e-05, No Iterations 2
smoothSolver:  Solving for k, Initial residual = 0.016018, Final residual = 0.00142893, No Iterations 2
ExecutionTime = 5.68435 s  ClockTime = 6 s

Time = 19s

smoothSolver:  Solving for Ux, Initial residual = 0.0159533, Final residual = 0.000246867, No Iterations 4
smoothSolver:  Solving for Uy, Initial residual = 0.0492868, Final residual = 0.000660062, No Iterations 4
GAMG:  Solving for p, Initial residual = 0.199477, Final residual = 0.0130091, No Iterations 4
time step continuity errors : sum local = 0.0344713, global = -0.00141474, cumulative = -0.0150295
smoothSolver:  Solving for omega, Initial residual = 0.000701733, Final residual = 4.37057e-05, No Iterations 2
smoothSolver:  Solving for k, Initial residual = 0.017864, Final residual = 0.00110972, No Iterations 2
ExecutionTime = 5.94427 s  ClockTime = 6 s

Time = 20s

smoothSolver:  Solving for Ux, Initial residual = 0.0121858, Final residual = 0.000155713, No Iterations 4
smoothSolver:  Solving for Uy, Initial residual = 0.0435725, Final residual = 0.000492981, No Iterations 4
GAMG:  Solving for p, Initial residual = 0.14936, Final residual = 0.0113265, No Iterations 4
time step continuity errors : sum local = 0.0304074, global = 0.00196166, cumulative = -0.0130679
smoothSolver:  Solving for omega, Initial residual = 0.000795144, Final residual = 3.23934e-05, No Iterations 2
smoothSolver:  Solving for k, Initial residual = 0.0159964, Final residual = 0.000825272, No Iterations 2
ExecutionTime = 6.20673 s  ClockTime = 6 s

Time = 21s

smoothSolver:  Solving for Ux, Initial residual = 0.0107345, Final residual = 0.000132302, No Iterations 4
smoothSolver:  Solving for Uy, Initial residual = 0.0377036, Final residual = 0.000407666, No Iterations 4
GAMG:  Solving for p, Initial residual = 0.146503, Final residual = 0.00865402, No Iterations 7
time step continuity errors : sum local = 0.0183448, global = 0.000109064, cumulative = -0.0129588
smoothSolver:  Solving for omega, Initial residual = 0.000497292, Final residual = 2.77561e-05, No Iterations 2
smoothSolver:  Solving for k, Initial residual = 0.0103784, Final residual = 0.000709777, No Iterations 2
bounding k, min: -0.054889 max: 1490.46 average: 0.664258
ExecutionTime = 6.51252 s  ClockTime = 7 s

Time = 22s

smoothSolver:  Solving for Ux, Initial residual = 0.0106658, Final residual = 0.000972702, No Iterations 2
smoothSolver:  Solving for Uy, Initial residual = 0.033012, Final residual = 0.00324082, No Iterations 2
GAMG:  Solving for p, Initial residual = 0.176618, Final residual = 0.0142894, No Iterations 3
time step continuity errors : sum local = 0.0297021, global = 0.00135419, cumulative = -0.0116046
smoothSolver:  Solving for omega, Initial residual = 0.000374961, Final residual = 3.11862e-05, No Iterations 2
smoothSolver:  Solving for k, Initial residual = 0.0106296, Final residual = 0.000874564, No Iterations 2
bounding k, min: -0.610543 max: 923.952 average: 0.662506
ExecutionTime = 6.75885 s  ClockTime = 7 s

Time = 23s

smoothSolver:  Solving for Ux, Initial residual = 0.00944768, Final residual = 0.000119876, No Iterations 4
smoothSolver:  Solving for Uy, Initial residual = 0.0317893, Final residual = 0.000395083, No Iterations 4
GAMG:  Solving for p, Initial residual = 0.149419, Final residual = 0.0117709, No Iterations 4
time step continuity errors : sum local = 0.0238847, global = -0.000427, cumulative = -0.0120316
smoothSolver:  Solving for omega, Initial residual = 0.000276585, Final residual = 2.55144e-05, No Iterations 2
smoothSolver:  Solving for k, Initial residual = 0.00780667, Final residual = 0.000718544, No Iterations 2
bounding k, min: -0.19273 max: 839.779 average: 0.671926
ExecutionTime = 7.03993 s  ClockTime = 7 s

Time = 24s

smoothSolver:  Solving for Ux, Initial residual = 0.00734572, Final residual = 8.29114e-05, No Iterations 4
smoothSolver:  Solving for Uy, Initial residual = 0.025719, Final residual = 0.000313087, No Iterations 4
GAMG:  Solving for p, Initial residual = 0.113404, Final residual = 0.00795502, No Iterations 6
time step continuity errors : sum local = 0.0147982, global = 0.000170996, cumulative = -0.0118606
smoothSolver:  Solving for omega, Initial residual = 0.000234168, Final residual = 2.16149e-05, No Iterations 2
smoothSolver:  Solving for k, Initial residual = 0.00611383, Final residual = 0.00059308, No Iterations 2
ExecutionTime = 7.30628 s  ClockTime = 7 s

Time = 25s

smoothSolver:  Solving for Ux, Initial residual = 0.00744139, Final residual = 8.25556e-05, No Iterations 4
smoothSolver:  Solving for Uy, Initial residual = 0.0239173, Final residual = 0.0002568, No Iterations 4
GAMG:  Solving for p, Initial residual = 0.194795, Final residual = 0.0148867, No Iterations 3
time step continuity errors : sum local = 0.0211136, global = -0.000731223, cumulative = -0.0125919
smoothSolver:  Solving for omega, Initial residual = 0.00021837, Final residual = 2.077e-05, No Iterations 2
smoothSolver:  Solving for k, Initial residual = 0.00724749, Final residual = 0.000545146, No Iterations 2
bounding k, min: -0.257569 max: 735.627 average: 0.665569
ExecutionTime = 7.54468 s  ClockTime = 8 s

Time = 26s

smoothSolver:  Solving for Ux, Initial residual = 0.00652911, Final residual = 7.33001e-05, No Iterations 4
smoothSolver:  Solving for Uy, Initial residual = 0.0225006, Final residual = 0.000236004, No Iterations 4
GAMG:  Solving for p, Initial residual = 0.154242, Final residual = 0.0140524, No Iterations 4
time step continuity errors : sum local = 0.0190773, global = -0.000186255, cumulative = -0.0127781
smoothSolver:  Solving for omega, Initial residual = 0.000194401, Final residual = 1.79842e-05, No Iterations 2
smoothSolver:  Solving for k, Initial residual = 0.0058867, Final residual = 0.000519424, No Iterations 2
bounding k, min: -0.083297 max: 691.724 average: 0.656515
ExecutionTime = 7.79371 s  ClockTime = 8 s

Time = 27s

smoothSolver:  Solving for Ux, Initial residual = 0.00490248, Final residual = 0.000464188, No Iterations 2
smoothSolver:  Solving for Uy, Initial residual = 0.0178244, Final residual = 0.0017559, No Iterations 2
GAMG:  Solving for p, Initial residual = 0.113469, Final residual = 0.00731569, No Iterations 6
time step continuity errors : sum local = 0.0092355, global = -0.000408756, cumulative = -0.0131869
smoothSolver:  Solving for omega, Initial residual = 0.000160454, Final residual = 6.28198e-06, No Iterations 3
smoothSolver:  Solving for k, Initial residual = 0.00454171, Final residual = 0.000189272, No Iterations 3
bounding k, min: -1.13708 max: 654.529 average: 0.64394
ExecutionTime = 8.06547 s  ClockTime = 8 s

Time = 28s

smoothSolver:  Solving for Ux, Initial residual = 0.00521043, Final residual = 0.000517359, No Iterations 2
smoothSolver:  Solving for Uy, Initial residual = 0.0185203, Final residual = 0.00018752, No Iterations 4
GAMG:  Solving for p, Initial residual = 0.564817, Final residual = 0.0373551, No Iterations 3
time step continuity errors : sum local = 0.0118435, global = 9.12964e-05, cumulative = -0.0130956
smoothSolver:  Solving for omega, Initial residual = 0.000128909, Final residual = 6.05499e-06, No Iterations 3
smoothSolver:  Solving for k, Initial residual = 0.00410359, Final residual = 0.000188769, No Iterations 3
bounding k, min: -1.03962 max: 643.289 average: 0.639446
ExecutionTime = 8.30772 s  ClockTime = 8 s

Time = 29s

smoothSolver:  Solving for Ux, Initial residual = 0.00473443, Final residual = 5.46825e-05, No Iterations 4
smoothSolver:  Solving for Uy, Initial residual = 0.0181245, Final residual = 0.000203903, No Iterations 4
GAMG:  Solving for p, Initial residual = 0.465616, Final residual = 0.0264032, No Iterations 6
time step continuity errors : sum local = 0.00795747, global = 8.62401e-05, cumulative = -0.0130093
smoothSolver:  Solving for omega, Initial residual = 0.000114481, Final residual = 5.39826e-06, No Iterations 3
smoothSolver:  Solving for k, Initial residual = 0.00392733, Final residual = 0.000159195, No Iterations 3
bounding k, min: -2.00702 max: 628.314 average: 0.645613
ExecutionTime = 8.57417 s  ClockTime = 9 s

Time = 30s

smoothSolver:  Solving for Ux, Initial residual = 0.00206452, Final residual = 2.07311e-05, No Iterations 4
smoothSolver:  Solving for Uy, Initial residual = 0.00802962, Final residual = 7.90561e-05, No Iterations 4
GAMG:  Solving for p, Initial residual = 0.171773, Final residual = 0.0163151, No Iterations 3
time step continuity errors : sum local = 0.00958587, global = 0.000164456, cumulative = -0.0128449
smoothSolver:  Solving for omega, Initial residual = 0.000111796, Final residual = 5.16902e-06, No Iterations 3
smoothSolver:  Solving for k, Initial residual = 0.00342291, Final residual = 0.000152355, No Iterations 3
bounding k, min: -1.63498 max: 611.16 average: 0.639494
ExecutionTime = 8.82925 s  ClockTime = 9 s

Time = 31s

smoothSolver:  Solving for Ux, Initial residual = 0.00190057, Final residual = 1.94912e-05, No Iterations 4
smoothSolver:  Solving for Uy, Initial residual = 0.00693263, Final residual = 7.10244e-05, No Iterations 4
GAMG:  Solving for p, Initial residual = 0.127012, Final residual = 0.0111452, No Iterations 4
time step continuity errors : sum local = 0.00719513, global = 0.000273186, cumulative = -0.0125717
smoothSolver:  Solving for omega, Initial residual = 9.32651e-05, Final residual = 4.77883e-06, No Iterations 3
smoothSolver:  Solving for k, Initial residual = 0.00295841, Final residual = 0.000140032, No Iterations 3
bounding k, min: -0.808831 max: 591.087 average: 0.632725
ExecutionTime = 9.08612 s  ClockTime = 9 s

Time = 32s

smoothSolver:  Solving for Ux, Initial residual = 0.00183559, Final residual = 1.85078e-05, No Iterations 4
smoothSolver:  Solving for Uy, Initial residual = 0.00649096, Final residual = 6.48012e-05, No Iterations 4
GAMG:  Solving for p, Initial residual = 0.0749317, Final residual = 0.00335111, No Iterations 6
time step continuity errors : sum local = 0.00287999, global = 5.80126e-05, cumulative = -0.0125137
smoothSolver:  Solving for omega, Initial residual = 8.44438e-05, Final residual = 4.4975e-06, No Iterations 3
smoothSolver:  Solving for k, Initial residual = 0.00255206, Final residual = 0.000133601, No Iterations 3
bounding k, min: -0.188091 max: 567.161 average: 0.626774
ExecutionTime = 9.35872 s  ClockTime = 10 s

Time = 33s

smoothSolver:  Solving for Ux, Initial residual = 0.00223279, Final residual = 2.3125e-05, No Iterations 4
smoothSolver:  Solving for Uy, Initial residual = 0.00779488, Final residual = 7.85915e-05, No Iterations 4
GAMG:  Solving for p, Initial residual = 0.0444174, Final residual = 0.00365347, No Iterations 3
time step continuity errors : sum local = 0.00527379, global = -8.81617e-07, cumulative = -0.0125146
smoothSolver:  Solving for omega, Initial residual = 7.73783e-05, Final residual = 4.29553e-06, No Iterations 3
smoothSolver:  Solving for k, Initial residual = 0.00248979, Final residual = 0.000135546, No Iterations 3
bounding k, min: -0.0387758 max: 542.985 average: 0.628897
ExecutionTime = 9.60425 s  ClockTime = 10 s

Time = 34s

smoothSolver:  Solving for Ux, Initial residual = 0.00203099, Final residual = 2.17014e-05, No Iterations 4
smoothSolver:  Solving for Uy, Initial residual = 0.00690144, Final residual = 7.15837e-05, No Iterations 4
GAMG:  Solving for p, Initial residual = 0.0332933, Final residual = 0.00248166, No Iterations 6
time step continuity errors : sum local = 0.0034675, global = -0.000226603, cumulative = -0.0127412
smoothSolver:  Solving for omega, Initial residual = 7.00135e-05, Final residual = 3.99332e-06, No Iterations 3
smoothSolver:  Solving for k, Initial residual = 0.00215675, Final residual = 0.00012148, No Iterations 3
bounding k, min: -0.338009 max: 520.735 average: 0.627823
ExecutionTime = 9.87047 s  ClockTime = 10 s

Time = 35s

smoothSolver:  Solving for Ux, Initial residual = 0.00129308, Final residual = 1.39809e-05, No Iterations 4
smoothSolver:  Solving for Uy, Initial residual = 0.00570523, Final residual = 5.84826e-05, No Iterations 4
GAMG:  Solving for p, Initial residual = 0.0732706, Final residual = 0.00542155, No Iterations 3
time step continuity errors : sum local = 0.00339386, global = -0.000205681, cumulative = -0.0129468
smoothSolver:  Solving for omega, Initial residual = 6.50438e-05, Final residual = 9.73511e-06, No Iterations 2
smoothSolver:  Solving for k, Initial residual = 0.00200102, Final residual = 0.000114213, No Iterations 3
bounding k, min: -0.2573 max: 498.52 average: 0.627866
ExecutionTime = 10.1184 s  ClockTime = 10 s

Time = 36s

smoothSolver:  Solving for Ux, Initial residual = 0.00117627, Final residual = 1.27034e-05, No Iterations 4
smoothSolver:  Solving for Uy, Initial residual = 0.00554285, Final residual = 5.71739e-05, No Iterations 4
GAMG:  Solving for p, Initial residual = 0.0644302, Final residual = 0.00636257, No Iterations 4
time step continuity errors : sum local = 0.00360232, global = -0.000112737, cumulative = -0.0130596
smoothSolver:  Solving for omega, Initial residual = 6.12213e-05, Final residual = 9.27486e-06, No Iterations 2
smoothSolver:  Solving for k, Initial residual = 0.00185124, Final residual = 0.000107006, No Iterations 3
bounding k, min: -0.300338 max: 483.67 average: 0.629121
ExecutionTime = 10.3896 s  ClockTime = 11 s

Time = 37s

smoothSolver:  Solving for Ux, Initial residual = 0.000981974, Final residual = 1.00833e-05, No Iterations 4
smoothSolver:  Solving for Uy, Initial residual = 0.0046434, Final residual = 4.70387e-05, No Iterations 4
GAMG:  Solving for p, Initial residual = 0.0489712, Final residual = 0.00394307, No Iterations 5
time step continuity errors : sum local = 0.00215911, global = -2.83166e-06, cumulative = -0.0130624
smoothSolver:  Solving for omega, Initial residual = 5.75098e-05, Final residual = 8.79554e-06, No Iterations 2
smoothSolver:  Solving for k, Initial residual = 0.00174526, Final residual = 0.000102069, No Iterations 3
bounding k, min: -0.0118988 max: 468.106 average: 0.630476
ExecutionTime = 10.6721 s  ClockTime = 11 s

Time = 38s

smoothSolver:  Solving for Ux, Initial residual = 0.000981336, Final residual = 9.42211e-06, No Iterations 4
smoothSolver:  Solving for Uy, Initial residual = 0.0042944, Final residual = 4.30797e-05, No Iterations 4
GAMG:  Solving for p, Initial residual = 0.0383036, Final residual = 0.00332357, No Iterations 3
time step continuity errors : sum local = 0.00225425, global = 0.00012462, cumulative = -0.0129378
smoothSolver:  Solving for omega, Initial residual = 5.47741e-05, Final residual = 8.35303e-06, No Iterations 2
smoothSolver:  Solving for k, Initial residual = 0.001636, Final residual = 9.7797e-05, No Iterations 3
ExecutionTime = 10.954 s  ClockTime = 11 s

Time = 39s

smoothSolver:  Solving for Ux, Initial residual = 0.000879675, Final residual = 8.5508e-06, No Iterations 4
smoothSolver:  Solving for Uy, Initial residual = 0.00370286, Final residual = 3.74702e-05, No Iterations 4
GAMG:  Solving for p, Initial residual = 0.0277805, Final residual = 0.00193042, No Iterations 5
time step continuity errors : sum local = 0.00140177, global = 8.31466e-05, cumulative = -0.0128546
smoothSolver:  Solving for omega, Initial residual = 5.22349e-05, Final residual = 7.95229e-06, No Iterations 2
smoothSolver:  Solving for k, Initial residual = 0.00153746, Final residual = 9.3969e-05, No Iterations 3
ExecutionTime = 11.2242 s  ClockTime = 11 s

Time = 40s

smoothSolver:  Solving for Ux, Initial residual = 0.000915963, Final residual = 9.61731e-06, No Iterations 4
smoothSolver:  Solving for Uy, Initial residual = 0.00298137, Final residual = 3.0681e-05, No Iterations 4
GAMG:  Solving for p, Initial residual = 0.0205627, Final residual = 0.00162797, No Iterations 2
time step continuity errors : sum local = 0.00149703, global = 6.24357e-05, cumulative = -0.0127922
smoothSolver:  Solving for omega, Initial residual = 4.99497e-05, Final residual = 7.61501e-06, No Iterations 2
smoothSolver:  Solving for k, Initial residual = 0.00145041, Final residual = 9.01785e-05, No Iterations 3
ExecutionTime = 11.4601 s  ClockTime = 12 s

Time = 41s

smoothSolver:  Solving for Ux, Initial residual = 0.000884187, Final residual = 9.4359e-06, No Iterations 4
smoothSolver:  Solving for Uy, Initial residual = 0.00290921, Final residual = 3.07763e-05, No Iterations 4
GAMG:  Solving for p, Initial residual = 0.0165362, Final residual = 0.00135594, No Iterations 4
time step continuity errors : sum local = 0.00124184, global = -2.81165e-05, cumulative = -0.0128203
smoothSolver:  Solving for omega, Initial residual = 4.75392e-05, Final residual = 7.28499e-06, No Iterations 2
smoothSolver:  Solving for k, Initial residual = 0.00137074, Final residual = 8.63598e-05, No Iterations 3
ExecutionTime = 11.7522 s  ClockTime = 12 s

Time = 42s

smoothSolver:  Solving for Ux, Initial residual = 0.00074358, Final residual = 7.79259e-06, No Iterations 4
smoothSolver:  Solving for Uy, Initial residual = 0.00282094, Final residual = 2.94388e-05, No Iterations 4
GAMG:  Solving for p, Initial residual = 0.0165358, Final residual = 0.0013486, No Iterations 4
time step continuity errors : sum local = 0.00104733, global = 9.30462e-06, cumulative = -0.012811
smoothSolver:  Solving for omega, Initial residual = 4.47773e-05, Final residual = 6.99328e-06, No Iterations 2
smoothSolver:  Solving for k, Initial residual = 0.00129926, Final residual = 8.29937e-05, No Iterations 3
ExecutionTime = 12.0118 s  ClockTime = 12 s

Time = 43s

smoothSolver:  Solving for Ux, Initial residual = 0.000697468, Final residual = 7.0659e-06, No Iterations 4
smoothSolver:  Solving for Uy, Initial residual = 0.00292684, Final residual = 3.01066e-05, No Iterations 4
GAMG:  Solving for p, Initial residual = 0.0173042, Final residual = 0.00153458, No Iterations 2
time step continuity errors : sum local = 0.00106454, global = -2.53945e-05, cumulative = -0.0128364
smoothSolver:  Solving for omega, Initial residual = 4.34751e-05, Final residual = 6.71703e-06, No Iterations 2
smoothSolver:  Solving for k, Initial residual = 0.00123364, Final residual = 7.94117e-05, No Iterations 3
ExecutionTime = 12.2417 s  ClockTime = 12 s

Time = 44s

smoothSolver:  Solving for Ux, Initial residual = 0.000672422, Final residual = 6.77192e-06, No Iterations 4
smoothSolver:  Solving for Uy, Initial residual = 0.00281588, Final residual = 2.89154e-05, No Iterations 4
GAMG:  Solving for p, Initial residual = 0.0144248, Final residual = 0.00128861, No Iterations 4
time step continuity errors : sum local = 0.00089564, global = 0.000106706, cumulative = -0.0127297
smoothSolver:  Solving for omega, Initial residual = 4.19978e-05, Final residual = 6.4518e-06, No Iterations 2
smoothSolver:  Solving for k, Initial residual = 0.00116644, Final residual = 7.55735e-05, No Iterations 3
ExecutionTime = 12.5057 s  ClockTime = 13 s

Time = 45s

smoothSolver:  Solving for Ux, Initial residual = 0.000698844, Final residual = 7.01444e-06, No Iterations 4
smoothSolver:  Solving for Uy, Initial residual = 0.00255951, Final residual = 2.62129e-05, No Iterations 4
GAMG:  Solving for p, Initial residual = 0.0122995, Final residual = 0.000939509, No Iterations 2
time step continuity errors : sum local = 0.000710166, global = 5.84561e-05, cumulative = -0.0126713
smoothSolver:  Solving for omega, Initial residual = 3.97653e-05, Final residual = 6.20019e-06, No Iterations 2
smoothSolver:  Solving for k, Initial residual = 0.00110857, Final residual = 7.16892e-05, No Iterations 3
ExecutionTime = 12.7716 s  ClockTime = 13 s

Time = 46s

smoothSolver:  Solving for Ux, Initial residual = 0.000686043, Final residual = 6.93586e-06, No Iterations 4
smoothSolver:  Solving for Uy, Initial residual = 0.00245591, Final residual = 2.51754e-05, No Iterations 4
GAMG:  Solving for p, Initial residual = 0.0105219, Final residual = 0.000691279, No Iterations 4
time step continuity errors : sum local = 0.000529554, global = -5.41713e-05, cumulative = -0.0127254
smoothSolver:  Solving for omega, Initial residual = 3.82637e-05, Final residual = 5.96022e-06, No Iterations 2
smoothSolver:  Solving for k, Initial residual = 0.00105043, Final residual = 6.78748e-05, No Iterations 3
bounding k, min: -0.00470945 max: 312.173 average: 0.663982
ExecutionTime = 13.0395 s  ClockTime = 13 s

Time = 47s

smoothSolver:  Solving for Ux, Initial residual = 0.000676929, Final residual = 6.97487e-06, No Iterations 4
smoothSolver:  Solving for Uy, Initial residual = 0.00227576, Final residual = 2.36176e-05, No Iterations 4
GAMG:  Solving for p, Initial residual = 0.00940184, Final residual = 0.00069899, No Iterations 2
time step continuity errors : sum local = 0.00056653, global = -1.14057e-07, cumulative = -0.0127255
smoothSolver:  Solving for omega, Initial residual = 3.65756e-05, Final residual = 5.73512e-06, No Iterations 2
smoothSolver:  Solving for k, Initial residual = 0.000999596, Final residual = 6.44647e-05, No Iterations 3
ExecutionTime = 13.3083 s  ClockTime = 13 s

Time = 48s

smoothSolver:  Solving for Ux, Initial residual = 0.0006639, Final residual = 6.8479e-06, No Iterations 4
smoothSolver:  Solving for Uy, Initial residual = 0.00223245, Final residual = 2.31746e-05, No Iterations 4
GAMG:  Solving for p, Initial residual = 0.00840147, Final residual = 0.000557042, No Iterations 4
time step continuity errors : sum local = 0.000449842, global = 8.65726e-05, cumulative = -0.012639
smoothSolver:  Solving for omega, Initial residual = 3.52171e-05, Final residual = 5.51955e-06, No Iterations 2
smoothSolver:  Solving for k, Initial residual = 0.000951344, Final residual = 6.11336e-05, No Iterations 3
ExecutionTime = 13.5867 s  ClockTime = 14 s

Time = 49s

smoothSolver:  Solving for Ux, Initial residual = 0.000638854, Final residual = 6.50203e-06, No Iterations 4
smoothSolver:  Solving for Uy, Initial residual = 0.00227806, Final residual = 2.31362e-05, No Iterations 4
GAMG:  Solving for p, Initial residual = 0.00825982, Final residual = 0.000620451, No Iterations 2
time step continuity errors : sum local = 0.000475362, global = -2.36226e-05, cumulative = -0.0126626
smoothSolver:  Solving for omega, Initial residual = 3.38077e-05, Final residual = 5.32216e-06, No Iterations 2
smoothSolver:  Solving for k, Initial residual = 0.000904461, Final residual = 5.81295e-05, No Iterations 3
ExecutionTime = 13.8518 s  ClockTime = 14 s

Time = 50s

smoothSolver:  Solving for Ux, Initial residual = 0.00062549, Final residual = 6.35861e-06, No Iterations 4
smoothSolver:  Solving for Uy, Initial residual = 0.0022586, Final residual = 2.28999e-05, No Iterations 4
GAMG:  Solving for p, Initial residual = 0.00767655, Final residual = 0.000665634, No Iterations 3
time step continuity errors : sum local = 0.000506256, global = 5.49688e-06, cumulative = -0.0126571
smoothSolver:  Solving for omega, Initial residual = 3.24782e-05, Final residual = 5.13165e-06, No Iterations 2
smoothSolver:  Solving for k, Initial residual = 0.000859102, Final residual = 5.55578e-05, No Iterations 3
ExecutionTime = 14.1171 s  ClockTime = 14 s

Time = 51s

smoothSolver:  Solving for Ux, Initial residual = 0.000613755, Final residual = 6.21458e-06, No Iterations 4
smoothSolver:  Solving for Uy, Initial residual = 0.00227508, Final residual = 2.29485e-05, No Iterations 4
GAMG:  Solving for p, Initial residual = 0.00735013, Final residual = 0.000420345, No Iterations 2
time step continuity errors : sum local = 0.000314776, global = 7.12215e-06, cumulative = -0.01265
smoothSolver:  Solving for omega, Initial residual = 3.13179e-05, Final residual = 4.95226e-06, No Iterations 2
smoothSolver:  Solving for k, Initial residual = 0.000815248, Final residual = 5.31834e-05, No Iterations 3
ExecutionTime = 14.377 s  ClockTime = 15 s

Time = 52s

smoothSolver:  Solving for Ux, Initial residual = 0.00060653, Final residual = 6.13552e-06, No Iterations 4
smoothSolver:  Solving for Uy, Initial residual = 0.00224968, Final residual = 2.27117e-05, No Iterations 4
GAMG:  Solving for p, Initial residual = 0.00676589, Final residual = 0.000510959, No Iterations 2
time step continuity errors : sum local = 0.000382665, global = 2.12383e-05, cumulative = -0.0126287
smoothSolver:  Solving for omega, Initial residual = 3.01105e-05, Final residual = 4.78338e-06, No Iterations 2
smoothSolver:  Solving for k, Initial residual = 0.000776666, Final residual = 5.09444e-05, No Iterations 3
ExecutionTime = 14.6506 s  ClockTime = 15 s

Time = 53s

smoothSolver:  Solving for Ux, Initial residual = 0.00060127, Final residual = 6.0761e-06, No Iterations 4
smoothSolver:  Solving for Uy, Initial residual = 0.00221356, Final residual = 2.23738e-05, No Iterations 4
GAMG:  Solving for p, Initial residual = 0.00633023, Final residual = 0.000341165, No Iterations 4
time step continuity errors : sum local = 0.000256302, global = 5.08672e-05, cumulative = -0.0125779
smoothSolver:  Solving for omega, Initial residual = 2.91986e-05, Final residual = 4.63013e-06, No Iterations 2
smoothSolver:  Solving for k, Initial residual = 0.000740762, Final residual = 4.89492e-05, No Iterations 3
bounding k, min: -0.014227 max: 230.73 average: 0.702018
ExecutionTime = 14.9561 s  ClockTime = 15 s

Time = 54s

smoothSolver:  Solving for Ux, Initial residual = 0.000608504, Final residual = 6.1679e-06, No Iterations 4
smoothSolver:  Solving for Uy, Initial residual = 0.00212748, Final residual = 2.16249e-05, No Iterations 4
GAMG:  Solving for p, Initial residual = 0.00618508, Final residual = 0.000278102, No Iterations 2
time step continuity errors : sum local = 0.00021536, global = 1.7939e-05, cumulative = -0.0125599
smoothSolver:  Solving for omega, Initial residual = 2.81302e-05, Final residual = 4.47591e-06, No Iterations 2
smoothSolver:  Solving for k, Initial residual = 0.000704883, Final residual = 4.68523e-05, No Iterations 3
ExecutionTime = 15.2353 s  ClockTime = 15 s

Time = 55s

smoothSolver:  Solving for Ux, Initial residual = 0.000600536, Final residual = 6.08552e-06, No Iterations 4
smoothSolver:  Solving for Uy, Initial residual = 0.00210305, Final residual = 2.13765e-05, No Iterations 4
GAMG:  Solving for p, Initial residual = 0.00585663, Final residual = 0.000457581, No Iterations 2
time step continuity errors : sum local = 0.000354905, global = -7.87667e-09, cumulative = -0.0125599
smoothSolver:  Solving for omega, Initial residual = 2.71144e-05, Final residual = 4.33197e-06, No Iterations 2
smoothSolver:  Solving for k, Initial residual = 0.000673019, Final residual = 4.49341e-05, No Iterations 3
ExecutionTime = 15.5234 s  ClockTime = 16 s

Time = 56s

smoothSolver:  Solving for Ux, Initial residual = 0.000590679, Final residual = 5.96876e-06, No Iterations 4
smoothSolver:  Solving for Uy, Initial residual = 0.00207338, Final residual = 2.10475e-05, No Iterations 4
GAMG:  Solving for p, Initial residual = 0.00565025, Final residual = 0.000508029, No Iterations 3
time step continuity errors : sum local = 0.000394131, global = -1.95741e-05, cumulative = -0.0125795
smoothSolver:  Solving for omega, Initial residual = 2.63471e-05, Final residual = 4.1955e-06, No Iterations 2
smoothSolver:  Solving for k, Initial residual = 0.000641417, Final residual = 4.31179e-05, No Iterations 3
ExecutionTime = 15.8056 s  ClockTime = 16 s

Time = 57s

smoothSolver:  Solving for Ux, Initial residual = 0.000579144, Final residual = 5.81606e-06, No Iterations 4
smoothSolver:  Solving for Uy, Initial residual = 0.00205449, Final residual = 2.0717e-05, No Iterations 4
GAMG:  Solving for p, Initial residual = 0.00566894, Final residual = 0.00025839, No Iterations 2
time step continuity errors : sum local = 0.000199053, global = -1.87605e-05, cumulative = -0.0125983
smoothSolver:  Solving for omega, Initial residual = 2.54187e-05, Final residual = 4.06466e-06, No Iterations 2
smoothSolver:  Solving for k, Initial residual = 0.000611738, Final residual = 4.13624e-05, No Iterations 3
bounding k, min: -0.0204751 max: 197.729 average: 0.725396
ExecutionTime = 16.0984 s  ClockTime = 16 s

Time = 58s

smoothSolver:  Solving for Ux, Initial residual = 0.000573356, Final residual = 5.74828e-06, No Iterations 4
smoothSolver:  Solving for Uy, Initial residual = 0.00203702, Final residual = 2.0532e-05, No Iterations 4
GAMG:  Solving for p, Initial residual = 0.00538173, Final residual = 0.000336769, No Iterations 2
time step continuity errors : sum local = 0.000259127, global = -1.69999e-05, cumulative = -0.0126153
smoothSolver:  Solving for omega, Initial residual = 2.46206e-05, Final residual = 9.77217e-06, No Iterations 1
smoothSolver:  Solving for k, Initial residual = 0.000586662, Final residual = 4.00035e-05, No Iterations 3
ExecutionTime = 16.3928 s  ClockTime = 17 s

Time = 59s

smoothSolver:  Solving for Ux, Initial residual = 0.000568764, Final residual = 5.68968e-06, No Iterations 4
smoothSolver:  Solving for Uy, Initial residual = 0.00202405, Final residual = 2.03851e-05, No Iterations 4
GAMG:  Solving for p, Initial residual = 0.00520332, Final residual = 0.00043984, No Iterations 2
time step continuity errors : sum local = 0.000337876, global = -5.44936e-06, cumulative = -0.0126207
smoothSolver:  Solving for omega, Initial residual = 2.43215e-05, Final residual = 9.78904e-06, No Iterations 1
smoothSolver:  Solving for k, Initial residual = 0.00056502, Final residual = 3.88133e-05, No Iterations 3
ExecutionTime = 16.6602 s  ClockTime = 17 s

Time = 60s

smoothSolver:  Solving for Ux, Initial residual = 0.000565346, Final residual = 5.6454e-06, No Iterations 4
smoothSolver:  Solving for Uy, Initial residual = 0.00202039, Final residual = 2.03667e-05, No Iterations 4
GAMG:  Solving for p, Initial residual = 0.0051108, Final residual = 0.000404125, No Iterations 2
time step continuity errors : sum local = 0.000309695, global = -1.77118e-06, cumulative = -0.0126225
smoothSolver:  Solving for omega, Initial residual = 2.39395e-05, Final residual = 9.62593e-06, No Iterations 1
smoothSolver:  Solving for k, Initial residual = 0.000543792, Final residual = 3.76779e-05, No Iterations 3
ExecutionTime = 16.9113 s  ClockTime = 17 s

Time = 61s

smoothSolver:  Solving for Ux, Initial residual = 0.000561147, Final residual = 5.59916e-06, No Iterations 4
smoothSolver:  Solving for Uy, Initial residual = 0.00202296, Final residual = 2.04068e-05, No Iterations 4
GAMG:  Solving for p, Initial residual = 0.00501202, Final residual = 0.00028542, No Iterations 2
time step continuity errors : sum local = 0.000218223, global = 3.30379e-06, cumulative = -0.0126192
smoothSolver:  Solving for omega, Initial residual = 2.34849e-05, Final residual = 9.37589e-06, No Iterations 1
smoothSolver:  Solving for k, Initial residual = 0.00052415, Final residual = 3.6605e-05, No Iterations 3
ExecutionTime = 17.1579 s  ClockTime = 17 s

Time = 62s

smoothSolver:  Solving for Ux, Initial residual = 0.000555503, Final residual = 5.53774e-06, No Iterations 4
smoothSolver:  Solving for Uy, Initial residual = 0.00201679, Final residual = 2.03313e-05, No Iterations 4
GAMG:  Solving for p, Initial residual = 0.00486454, Final residual = 0.00026535, No Iterations 2
time step continuity errors : sum local = 0.000202635, global = 9.32472e-06, cumulative = -0.0126099
smoothSolver:  Solving for omega, Initial residual = 2.30259e-05, Final residual = 9.11746e-06, No Iterations 1
smoothSolver:  Solving for k, Initial residual = 0.000505154, Final residual = 3.55816e-05, No Iterations 3
ExecutionTime = 17.3959 s  ClockTime = 18 s

Time = 63s

smoothSolver:  Solving for Ux, Initial residual = 0.000549641, Final residual = 5.47385e-06, No Iterations 4
smoothSolver:  Solving for Uy, Initial residual = 0.00200322, Final residual = 2.01817e-05, No Iterations 4
GAMG:  Solving for p, Initial residual = 0.00476616, Final residual = 0.00028717, No Iterations 2
time step continuity errors : sum local = 0.000219176, global = 1.08439e-05, cumulative = -0.012599
smoothSolver:  Solving for omega, Initial residual = 2.25536e-05, Final residual = 8.88745e-06, No Iterations 1
smoothSolver:  Solving for k, Initial residual = 0.000488051, Final residual = 3.45495e-05, No Iterations 3
ExecutionTime = 17.6599 s  ClockTime = 18 s

Time = 64s

smoothSolver:  Solving for Ux, Initial residual = 0.00054426, Final residual = 5.40781e-06, No Iterations 4
smoothSolver:  Solving for Uy, Initial residual = 0.00198505, Final residual = 1.9987e-05, No Iterations 4
GAMG:  Solving for p, Initial residual = 0.00469089, Final residual = 0.000304704, No Iterations 2
time step continuity errors : sum local = 0.000232528, global = 9.64722e-06, cumulative = -0.0125894
smoothSolver:  Solving for omega, Initial residual = 2.21175e-05, Final residual = 8.69712e-06, No Iterations 1
smoothSolver:  Solving for k, Initial residual = 0.000471578, Final residual = 3.35554e-05, No Iterations 3
ExecutionTime = 17.9176 s  ClockTime = 18 s

Time = 65s

smoothSolver:  Solving for Ux, Initial residual = 0.000539288, Final residual = 5.34385e-06, No Iterations 4
smoothSolver:  Solving for Uy, Initial residual = 0.00196299, Final residual = 1.97612e-05, No Iterations 4
GAMG:  Solving for p, Initial residual = 0.00461258, Final residual = 0.000302477, No Iterations 2
time step continuity errors : sum local = 0.000230923, global = 7.60016e-06, cumulative = -0.0125818
smoothSolver:  Solving for omega, Initial residual = 2.16911e-05, Final residual = 8.53344e-06, No Iterations 1
smoothSolver:  Solving for k, Initial residual = 0.000456216, Final residual = 3.26173e-05, No Iterations 3
ExecutionTime = 18.172 s  ClockTime = 18 s

Time = 66s

smoothSolver:  Solving for Ux, Initial residual = 0.000534685, Final residual = 5.28646e-06, No Iterations 4
smoothSolver:  Solving for Uy, Initial residual = 0.00193738, Final residual = 1.94998e-05, No Iterations 4
GAMG:  Solving for p, Initial residual = 0.00452795, Final residual = 0.000273483, No Iterations 2
time step continuity errors : sum local = 0.00020901, global = 5.20315e-06, cumulative = -0.0125766
smoothSolver:  Solving for omega, Initial residual = 2.1277e-05, Final residual = 8.38013e-06, No Iterations 1
smoothSolver:  Solving for k, Initial residual = 0.000442296, Final residual = 3.17006e-05, No Iterations 3
ExecutionTime = 18.4559 s  ClockTime = 19 s

Time = 67s

smoothSolver:  Solving for Ux, Initial residual = 0.000530653, Final residual = 5.23705e-06, No Iterations 4
smoothSolver:  Solving for Uy, Initial residual = 0.00191126, Final residual = 1.92362e-05, No Iterations 4
GAMG:  Solving for p, Initial residual = 0.00443841, Final residual = 0.000247273, No Iterations 2
time step continuity errors : sum local = 0.000189273, global = 2.84374e-06, cumulative = -0.0125737
smoothSolver:  Solving for omega, Initial residual = 2.08461e-05, Final residual = 8.23092e-06, No Iterations 1
smoothSolver:  Solving for k, Initial residual = 0.00042885, Final residual = 3.08078e-05, No Iterations 3
ExecutionTime = 18.7059 s  ClockTime = 19 s

Time = 68s

smoothSolver:  Solving for Ux, Initial residual = 0.00052662, Final residual = 5.19226e-06, No Iterations 4
smoothSolver:  Solving for Uy, Initial residual = 0.00188732, Final residual = 1.89919e-05, No Iterations 4
GAMG:  Solving for p, Initial residual = 0.00432499, Final residual = 0.000240493, No Iterations 2
time step continuity errors : sum local = 0.000184395, global = 2.60687e-06, cumulative = -0.0125711
smoothSolver:  Solving for omega, Initial residual = 2.04312e-05, Final residual = 8.08164e-06, No Iterations 1
smoothSolver:  Solving for k, Initial residual = 0.000415588, Final residual = 2.99963e-05, No Iterations 3
ExecutionTime = 18.9595 s  ClockTime = 19 s

Time = 69s

smoothSolver:  Solving for Ux, Initial residual = 0.000522923, Final residual = 5.15149e-06, No Iterations 4
smoothSolver:  Solving for Uy, Initial residual = 0.00186586, Final residual = 1.87561e-05, No Iterations 4
GAMG:  Solving for p, Initial residual = 0.00424365, Final residual = 0.000236173, No Iterations 2
time step continuity errors : sum local = 0.000181407, global = 4.36837e-06, cumulative = -0.0125667
smoothSolver:  Solving for omega, Initial residual = 2.00401e-05, Final residual = 7.9362e-06, No Iterations 1
smoothSolver:  Solving for k, Initial residual = 0.000404011, Final residual = 2.92879e-05, No Iterations 3
ExecutionTime = 19.205 s  ClockTime = 19 s

Time = 70s

smoothSolver:  Solving for Ux, Initial residual = 0.000519876, Final residual = 5.11953e-06, No Iterations 4
smoothSolver:  Solving for Uy, Initial residual = 0.00184855, Final residual = 1.85649e-05, No Iterations 4
GAMG:  Solving for p, Initial residual = 0.00417212, Final residual = 0.000226213, No Iterations 2
time step continuity errors : sum local = 0.000174086, global = 6.46638e-06, cumulative = -0.0125603
smoothSolver:  Solving for omega, Initial residual = 1.96664e-05, Final residual = 7.7894e-06, No Iterations 1
smoothSolver:  Solving for k, Initial residual = 0.000393093, Final residual = 2.8614e-05, No Iterations 3
ExecutionTime = 19.439 s  ClockTime = 20 s

Time = 71s

smoothSolver:  Solving for Ux, Initial residual = 0.00051666, Final residual = 5.08802e-06, No Iterations 4
smoothSolver:  Solving for Uy, Initial residual = 0.00183527, Final residual = 1.84248e-05, No Iterations 4
GAMG:  Solving for p, Initial residual = 0.00408088, Final residual = 0.000210274, No Iterations 2
time step continuity errors : sum local = 0.000162092, global = 8.16665e-06, cumulative = -0.0125521
smoothSolver:  Solving for omega, Initial residual = 1.92715e-05, Final residual = 7.64366e-06, No Iterations 1
smoothSolver:  Solving for k, Initial residual = 0.000381914, Final residual = 2.78805e-05, No Iterations 3
ExecutionTime = 19.6745 s  ClockTime = 20 s

Time = 72s

smoothSolver:  Solving for Ux, Initial residual = 0.000513297, Final residual = 5.05582e-06, No Iterations 4
smoothSolver:  Solving for Uy, Initial residual = 0.00182551, Final residual = 1.83147e-05, No Iterations 4
GAMG:  Solving for p, Initial residual = 0.00398652, Final residual = 0.000196938, No Iterations 2
time step continuity errors : sum local = 0.000151986, global = 8.65434e-06, cumulative = -0.0125435
smoothSolver:  Solving for omega, Initial residual = 1.89158e-05, Final residual = 7.50302e-06, No Iterations 1
smoothSolver:  Solving for k, Initial residual = 0.000371379, Final residual = 2.71976e-05, No Iterations 3
ExecutionTime = 19.9723 s  ClockTime = 20 s

Time = 73s

smoothSolver:  Solving for Ux, Initial residual = 0.000509523, Final residual = 5.01774e-06, No Iterations 4
smoothSolver:  Solving for Uy, Initial residual = 0.00181775, Final residual = 1.82246e-05, No Iterations 4
GAMG:  Solving for p, Initial residual = 0.00392621, Final residual = 0.000193702, No Iterations 2
time step continuity errors : sum local = 0.000149548, global = 8.01224e-06, cumulative = -0.0125354
smoothSolver:  Solving for omega, Initial residual = 1.85633e-05, Final residual = 7.36637e-06, No Iterations 1
smoothSolver:  Solving for k, Initial residual = 0.000361162, Final residual = 2.65123e-05, No Iterations 3
ExecutionTime = 20.2394 s  ClockTime = 20 s

Time = 74s

smoothSolver:  Solving for Ux, Initial residual = 0.000505571, Final residual = 4.98098e-06, No Iterations 4
smoothSolver:  Solving for Uy, Initial residual = 0.00181156, Final residual = 1.81334e-05, No Iterations 4
GAMG:  Solving for p, Initial residual = 0.00387144, Final residual = 0.000196376, No Iterations 2
time step continuity errors : sum local = 0.000151565, global = 6.08561e-06, cumulative = -0.0125294
smoothSolver:  Solving for omega, Initial residual = 1.82204e-05, Final residual = 7.23252e-06, No Iterations 1
smoothSolver:  Solving for k, Initial residual = 0.000351575, Final residual = 2.58308e-05, No Iterations 3
ExecutionTime = 20.5361 s  ClockTime = 21 s

Time = 75s

smoothSolver:  Solving for Ux, Initial residual = 0.000501506, Final residual = 4.94165e-06, No Iterations 4
smoothSolver:  Solving for Uy, Initial residual = 0.00180677, Final residual = 1.80663e-05, No Iterations 4
GAMG:  Solving for p, Initial residual = 0.00385141, Final residual = 0.000199998, No Iterations 2
time step continuity errors : sum local = 0.000154229, global = 2.5995e-06, cumulative = -0.0125268
smoothSolver:  Solving for omega, Initial residual = 1.79034e-05, Final residual = 7.10396e-06, No Iterations 1
smoothSolver:  Solving for k, Initial residual = 0.000342304, Final residual = 2.51973e-05, No Iterations 3
ExecutionTime = 20.7904 s  ClockTime = 21 s

Time = 76s

smoothSolver:  Solving for Ux, Initial residual = 0.00049737, Final residual = 4.89971e-06, No Iterations 4
smoothSolver:  Solving for Uy, Initial residual = 0.00180087, Final residual = 1.79728e-05, No Iterations 4
GAMG:  Solving for p, Initial residual = 0.00382878, Final residual = 0.000204193, No Iterations 2
time step continuity errors : sum local = 0.000157249, global = -1.60539e-06, cumulative = -0.0125284
smoothSolver:  Solving for omega, Initial residual = 1.75762e-05, Final residual = 6.97889e-06, No Iterations 1
smoothSolver:  Solving for k, Initial residual = 0.00033345, Final residual = 2.45719e-05, No Iterations 3
ExecutionTime = 21.0984 s  ClockTime = 21 s

Time = 77s

smoothSolver:  Solving for Ux, Initial residual = 0.000493365, Final residual = 4.855e-06, No Iterations 4
smoothSolver:  Solving for Uy, Initial residual = 0.00179217, Final residual = 1.78469e-05, No Iterations 4
GAMG:  Solving for p, Initial residual = 0.00375417, Final residual = 0.000209266, No Iterations 2
time step continuity errors : sum local = 0.000160871, global = -4.89081e-06, cumulative = -0.0125333
smoothSolver:  Solving for omega, Initial residual = 1.72564e-05, Final residual = 6.85638e-06, No Iterations 1
smoothSolver:  Solving for k, Initial residual = 0.000325013, Final residual = 2.39374e-05, No Iterations 3
ExecutionTime = 21.3654 s  ClockTime = 22 s

Time = 78s

smoothSolver:  Solving for Ux, Initial residual = 0.000489309, Final residual = 4.80658e-06, No Iterations 4
smoothSolver:  Solving for Uy, Initial residual = 0.00177903, Final residual = 1.76555e-05, No Iterations 4
GAMG:  Solving for p, Initial residual = 0.00366028, Final residual = 0.000213306, No Iterations 2
time step continuity errors : sum local = 0.000163639, global = -5.87925e-06, cumulative = -0.0125391
smoothSolver:  Solving for omega, Initial residual = 1.69574e-05, Final residual = 6.73533e-06, No Iterations 1
smoothSolver:  Solving for k, Initial residual = 0.000317042, Final residual = 2.33023e-05, No Iterations 3
ExecutionTime = 21.6269 s  ClockTime = 22 s

Time = 79s

smoothSolver:  Solving for Ux, Initial residual = 0.000485204, Final residual = 4.75424e-06, No Iterations 4
smoothSolver:  Solving for Uy, Initial residual = 0.00176031, Final residual = 1.73964e-05, No Iterations 4
GAMG:  Solving for p, Initial residual = 0.00356053, Final residual = 0.000192498, No Iterations 2
time step continuity errors : sum local = 0.0001474, global = -7.36814e-06, cumulative = -0.0125465
smoothSolver:  Solving for omega, Initial residual = 1.66645e-05, Final residual = 6.61855e-06, No Iterations 1
smoothSolver:  Solving for k, Initial residual = 0.000309241, Final residual = 2.26793e-05, No Iterations 3
ExecutionTime = 21.8944 s  ClockTime = 22 s

Time = 80s

smoothSolver:  Solving for Ux, Initial residual = 0.000481551, Final residual = 4.71164e-06, No Iterations 4
smoothSolver:  Solving for Uy, Initial residual = 0.00174165, Final residual = 1.71484e-05, No Iterations 4
GAMG:  Solving for p, Initial residual = 0.00351179, Final residual = 0.000173381, No Iterations 2
time step continuity errors : sum local = 0.000132631, global = -7.04394e-06, cumulative = -0.0125535
smoothSolver:  Solving for omega, Initial residual = 1.63696e-05, Final residual = 6.50324e-06, No Iterations 1
smoothSolver:  Solving for k, Initial residual = 0.000301542, Final residual = 2.20946e-05, No Iterations 3
ExecutionTime = 22.1635 s  ClockTime = 22 s

Time = 81s

smoothSolver:  Solving for Ux, Initial residual = 0.000478394, Final residual = 4.67779e-06, No Iterations 4
smoothSolver:  Solving for Uy, Initial residual = 0.00172461, Final residual = 1.69136e-05, No Iterations 4
GAMG:  Solving for p, Initial residual = 0.00345316, Final residual = 0.000170316, No Iterations 2
time step continuity errors : sum local = 0.000130263, global = -3.98126e-06, cumulative = -0.0125575
smoothSolver:  Solving for omega, Initial residual = 1.60753e-05, Final residual = 6.38718e-06, No Iterations 1
smoothSolver:  Solving for k, Initial residual = 0.000293722, Final residual = 2.15467e-05, No Iterations 3
ExecutionTime = 22.3932 s  ClockTime = 23 s

Time = 82s

smoothSolver:  Solving for Ux, Initial residual = 0.000475716, Final residual = 4.64985e-06, No Iterations 4
smoothSolver:  Solving for Uy, Initial residual = 0.00170948, Final residual = 1.67157e-05, No Iterations 4
GAMG:  Solving for p, Initial residual = 0.00338569, Final residual = 0.000170873, No Iterations 2
time step continuity errors : sum local = 0.000130745, global = 9.7941e-07, cumulative = -0.0125566
smoothSolver:  Solving for omega, Initial residual = 1.57744e-05, Final residual = 6.27373e-06, No Iterations 1
smoothSolver:  Solving for k, Initial residual = 0.000286247, Final residual = 2.10197e-05, No Iterations 3
ExecutionTime = 22.6462 s  ClockTime = 23 s

Time = 83s

smoothSolver:  Solving for Ux, Initial residual = 0.000473336, Final residual = 4.62322e-06, No Iterations 4
smoothSolver:  Solving for Uy, Initial residual = 0.00169645, Final residual = 1.65631e-05, No Iterations 4
GAMG:  Solving for p, Initial residual = 0.00331198, Final residual = 0.000166649, No Iterations 2
time step continuity errors : sum local = 0.000127648, global = 6.35098e-06, cumulative = -0.0125502
smoothSolver:  Solving for omega, Initial residual = 1.55135e-05, Final residual = 6.16711e-06, No Iterations 1
smoothSolver:  Solving for k, Initial residual = 0.000279191, Final residual = 2.0495e-05, No Iterations 3
ExecutionTime = 22.9111 s  ClockTime = 23 s

Time = 84s

smoothSolver:  Solving for Ux, Initial residual = 0.000471095, Final residual = 4.59994e-06, No Iterations 4
smoothSolver:  Solving for Uy, Initial residual = 0.00168453, Final residual = 1.64317e-05, No Iterations 4
GAMG:  Solving for p, Initial residual = 0.00327323, Final residual = 0.00015713, No Iterations 2
time step continuity errors : sum local = 0.000120569, global = 1.011e-05, cumulative = -0.0125401
smoothSolver:  Solving for omega, Initial residual = 1.52592e-05, Final residual = 6.06223e-06, No Iterations 1
smoothSolver:  Solving for k, Initial residual = 0.000271784, Final residual = 1.99793e-05, No Iterations 3
ExecutionTime = 23.1843 s  ClockTime = 23 s

Time = 85s

smoothSolver:  Solving for Ux, Initial residual = 0.00046872, Final residual = 4.5737e-06, No Iterations 4
smoothSolver:  Solving for Uy, Initial residual = 0.00167414, Final residual = 1.63176e-05, No Iterations 4
GAMG:  Solving for p, Initial residual = 0.00326971, Final residual = 0.000324045, No Iterations 1
time step continuity errors : sum local = 0.0002492, global = 1.04183e-05, cumulative = -0.0125297
smoothSolver:  Solving for omega, Initial residual = 1.50228e-05, Final residual = 5.96353e-06, No Iterations 1
smoothSolver:  Solving for k, Initial residual = 0.00026446, Final residual = 1.94545e-05, No Iterations 3
ExecutionTime = 23.4744 s  ClockTime = 24 s

Time = 86s

smoothSolver:  Solving for Ux, Initial residual = 0.000465364, Final residual = 4.53718e-06, No Iterations 4
smoothSolver:  Solving for Uy, Initial residual = 0.0016685, Final residual = 1.62186e-05, No Iterations 4
GAMG:  Solving for p, Initial residual = 0.00327456, Final residual = 0.000179405, No Iterations 2
time step continuity errors : sum local = 0.000138048, global = 1.44083e-05, cumulative = -0.0125153
smoothSolver:  Solving for omega, Initial residual = 1.47592e-05, Final residual = 5.86192e-06, No Iterations 1
smoothSolver:  Solving for k, Initial residual = 0.000257772, Final residual = 1.89741e-05, No Iterations 3
ExecutionTime = 23.7398 s  ClockTime = 24 s

Time = 87s

smoothSolver:  Solving for Ux, Initial residual = 0.000463234, Final residual = 4.51694e-06, No Iterations 4
smoothSolver:  Solving for Uy, Initial residual = 0.00165902, Final residual = 1.61048e-05, No Iterations 4
GAMG:  Solving for p, Initial residual = 0.00322748, Final residual = 0.000171916, No Iterations 2
time step continuity errors : sum local = 0.000132495, global = 1.31159e-05, cumulative = -0.0125021
smoothSolver:  Solving for omega, Initial residual = 1.44928e-05, Final residual = 5.76245e-06, No Iterations 1
smoothSolver:  Solving for k, Initial residual = 0.000251664, Final residual = 1.85117e-05, No Iterations 3
ExecutionTime = 24.0032 s  ClockTime = 24 s

Time = 88s

smoothSolver:  Solving for Ux, Initial residual = 0.000460964, Final residual = 4.49456e-06, No Iterations 4
smoothSolver:  Solving for Uy, Initial residual = 0.00165222, Final residual = 1.60246e-05, No Iterations 4
GAMG:  Solving for p, Initial residual = 0.00321037, Final residual = 0.000149601, No Iterations 2
time step continuity errors : sum local = 0.000115424, global = 9.56503e-06, cumulative = -0.0124926
smoothSolver:  Solving for omega, Initial residual = 1.42557e-05, Final residual = 5.66346e-06, No Iterations 1
smoothSolver:  Solving for k, Initial residual = 0.000245789, Final residual = 1.80544e-05, No Iterations 3
ExecutionTime = 24.2635 s  ClockTime = 24 s

Time = 89s

smoothSolver:  Solving for Ux, Initial residual = 0.000458036, Final residual = 4.46745e-06, No Iterations 4
smoothSolver:  Solving for Uy, Initial residual = 0.0016457, Final residual = 1.59432e-05, No Iterations 4
GAMG:  Solving for p, Initial residual = 0.00315337, Final residual = 0.000310273, No Iterations 1
time step continuity errors : sum local = 0.000239489, global = 2.04813e-06, cumulative = -0.0124905
smoothSolver:  Solving for omega, Initial residual = 1.40629e-05, Final residual = 5.57159e-06, No Iterations 1
smoothSolver:  Solving for k, Initial residual = 0.000239906, Final residual = 1.76046e-05, No Iterations 3
ExecutionTime = 24.5072 s  ClockTime = 25 s

Time = 90s

smoothSolver:  Solving for Ux, Initial residual = 0.000454636, Final residual = 4.43067e-06, No Iterations 4
smoothSolver:  Solving for Uy, Initial residual = 0.00164106, Final residual = 1.58676e-05, No Iterations 4
GAMG:  Solving for p, Initial residual = 0.00313411, Final residual = 0.000169203, No Iterations 2
time step continuity errors : sum local = 0.000130599, global = -2.62686e-07, cumulative = -0.0124908
smoothSolver:  Solving for omega, Initial residual = 1.38136e-05, Final residual = 5.48148e-06, No Iterations 1
smoothSolver:  Solving for k, Initial residual = 0.000234528, Final residual = 1.71848e-05, No Iterations 3
ExecutionTime = 24.7617 s  ClockTime = 25 s

Time = 91s

smoothSolver:  Solving for Ux, Initial residual = 0.000451745, Final residual = 4.39971e-06, No Iterations 4
smoothSolver:  Solving for Uy, Initial residual = 0.00162681, Final residual = 1.57088e-05, No Iterations 4
GAMG:  Solving for p, Initial residual = 0.00307537, Final residual = 0.000164949, No Iterations 2
time step continuity errors : sum local = 0.000127219, global = -4.25833e-06, cumulative = -0.0124951
smoothSolver:  Solving for omega, Initial residual = 1.35948e-05, Final residual = 5.39095e-06, No Iterations 1
smoothSolver:  Solving for k, Initial residual = 0.000229458, Final residual = 1.67959e-05, No Iterations 3
ExecutionTime = 25.0313 s  ClockTime = 25 s

Time = 92s

smoothSolver:  Solving for Ux, Initial residual = 0.000448782, Final residual = 4.36637e-06, No Iterations 4
smoothSolver:  Solving for Uy, Initial residual = 0.00160893, Final residual = 1.55196e-05, No Iterations 4
GAMG:  Solving for p, Initial residual = 0.00304959, Final residual = 0.000151869, No Iterations 2
time step continuity errors : sum local = 0.000116978, global = -6.76699e-06, cumulative = -0.0125018
smoothSolver:  Solving for omega, Initial residual = 1.33779e-05, Final residual = 5.30544e-06, No Iterations 1
smoothSolver:  Solving for k, Initial residual = 0.000224416, Final residual = 1.64133e-05, No Iterations 3
ExecutionTime = 25.3142 s  ClockTime = 26 s

Time = 93s

smoothSolver:  Solving for Ux, Initial residual = 0.000445706, Final residual = 4.33109e-06, No Iterations 4
smoothSolver:  Solving for Uy, Initial residual = 0.00159126, Final residual = 1.53271e-05, No Iterations 4
GAMG:  Solving for p, Initial residual = 0.00300096, Final residual = 0.000286378, No Iterations 1
time step continuity errors : sum local = 0.00022023, global = -1.52359e-05, cumulative = -0.0125171
smoothSolver:  Solving for omega, Initial residual = 1.31905e-05, Final residual = 5.21705e-06, No Iterations 1
smoothSolver:  Solving for k, Initial residual = 0.000219591, Final residual = 1.60386e-05, No Iterations 3
ExecutionTime = 25.5652 s  ClockTime = 26 s

Time = 94s

smoothSolver:  Solving for Ux, Initial residual = 0.000442461, Final residual = 4.2975e-06, No Iterations 4
smoothSolver:  Solving for Uy, Initial residual = 0.00158435, Final residual = 1.52625e-05, No Iterations 4
GAMG:  Solving for p, Initial residual = 0.00298099, Final residual = 0.000151022, No Iterations 2
time step continuity errors : sum local = 0.000116105, global = -9.62458e-06, cumulative = -0.0125267
smoothSolver:  Solving for omega, Initial residual = 1.29659e-05, Final residual = 5.13603e-06, No Iterations 1
smoothSolver:  Solving for k, Initial residual = 0.000214703, Final residual = 1.56933e-05, No Iterations 3
ExecutionTime = 25.8018 s  ClockTime = 26 s

Time = 95s

smoothSolver:  Solving for Ux, Initial residual = 0.000440229, Final residual = 4.27029e-06, No Iterations 4
smoothSolver:  Solving for Uy, Initial residual = 0.00156852, Final residual = 1.50903e-05, No Iterations 4
GAMG:  Solving for p, Initial residual = 0.00294014, Final residual = 0.000134654, No Iterations 2
time step continuity errors : sum local = 0.0001034, global = -7.5279e-06, cumulative = -0.0125342
smoothSolver:  Solving for omega, Initial residual = 1.27573e-05, Final residual = 5.05538e-06, No Iterations 1
smoothSolver:  Solving for k, Initial residual = 0.000210176, Final residual = 1.53622e-05, No Iterations 3
ExecutionTime = 26.037 s  ClockTime = 26 s

Time = 96s

smoothSolver:  Solving for Ux, Initial residual = 0.000438128, Final residual = 4.24596e-06, No Iterations 4
smoothSolver:  Solving for Uy, Initial residual = 0.00155771, Final residual = 1.49745e-05, No Iterations 4
GAMG:  Solving for p, Initial residual = 0.00289353, Final residual = 0.000275708, No Iterations 1
time step continuity errors : sum local = 0.000211528, global = -7.09726e-06, cumulative = -0.0125413
smoothSolver:  Solving for omega, Initial residual = 1.25943e-05, Final residual = 4.97791e-06, No Iterations 1
smoothSolver:  Solving for k, Initial residual = 0.000206395, Final residual = 1.50694e-05, No Iterations 3
ExecutionTime = 26.3299 s  ClockTime = 27 s

Time = 97s

smoothSolver:  Solving for Ux, Initial residual = 0.00043533, Final residual = 4.21621e-06, No Iterations 4
smoothSolver:  Solving for Uy, Initial residual = 0.00155259, Final residual = 1.49245e-05, No Iterations 4
GAMG:  Solving for p, Initial residual = 0.00289067, Final residual = 0.000151519, No Iterations 2
time step continuity errors : sum local = 0.000116239, global = -9.95716e-07, cumulative = -0.0125423
smoothSolver:  Solving for omega, Initial residual = 1.23318e-05, Final residual = 4.89799e-06, No Iterations 1
smoothSolver:  Solving for k, Initial residual = 0.000202415, Final residual = 1.48166e-05, No Iterations 3
ExecutionTime = 26.5638 s  ClockTime = 27 s

Time = 98s

smoothSolver:  Solving for Ux, Initial residual = 0.000433828, Final residual = 4.19723e-06, No Iterations 4
smoothSolver:  Solving for Uy, Initial residual = 0.00154393, Final residual = 1.48531e-05, No Iterations 4
GAMG:  Solving for p, Initial residual = 0.00286239, Final residual = 0.000135934, No Iterations 2
time step continuity errors : sum local = 0.000104259, global = 2.60855e-06, cumulative = -0.0125397
smoothSolver:  Solving for omega, Initial residual = 1.22673e-05, Final residual = 4.82757e-06, No Iterations 1
smoothSolver:  Solving for k, Initial residual = 0.000200799, Final residual = 1.45913e-05, No Iterations 3
ExecutionTime = 26.8377 s  ClockTime = 27 s

Time = 99s

smoothSolver:  Solving for Ux, Initial residual = 0.000432105, Final residual = 4.17506e-06, No Iterations 4
smoothSolver:  Solving for Uy, Initial residual = 0.00153722, Final residual = 1.47998e-05, No Iterations 4
GAMG:  Solving for p, Initial residual = 0.00283224, Final residual = 0.000282538, No Iterations 1
time step continuity errors : sum local = 0.000216726, global = 7.08641e-06, cumulative = -0.0125326
smoothSolver:  Solving for omega, Initial residual = 1.20541e-05, Final residual = 4.7601e-06, No Iterations 1
smoothSolver:  Solving for k, Initial residual = 0.000196595, Final residual = 1.43527e-05, No Iterations 3
ExecutionTime = 27.0894 s  ClockTime = 27 s

Time = 100s

smoothSolver:  Solving for Ux, Initial residual = 0.0004293, Final residual = 4.14122e-06, No Iterations 4
smoothSolver:  Solving for Uy, Initial residual = 0.00153253, Final residual = 1.47512e-05, No Iterations 4
GAMG:  Solving for p, Initial residual = 0.00282224, Final residual = 0.000146348, No Iterations 2
time step continuity errors : sum local = 0.000112278, global = 7.98748e-06, cumulative = -0.0125246
smoothSolver:  Solving for omega, Initial residual = 1.186e-05, Final residual = 4.68896e-06, No Iterations 1
smoothSolver:  Solving for k, Initial residual = 0.000193337, Final residual = 1.41104e-05, No Iterations 3
ExecutionTime = 27.7229 s  ClockTime = 28 s

Time = 101s

smoothSolver:  Solving for Ux, Initial residual = 0.000427393, Final residual = 4.11842e-06, No Iterations 4
smoothSolver:  Solving for Uy, Initial residual = 0.00152365, Final residual = 1.4669e-05, No Iterations 4
GAMG:  Solving for p, Initial residual = 0.00277338, Final residual = 0.000133591, No Iterations 2
time step continuity errors : sum local = 0.000102558, global = 7.50305e-06, cumulative = -0.0125171
smoothSolver:  Solving for omega, Initial residual = 1.16882e-05, Final residual = 4.62281e-06, No Iterations 1
smoothSolver:  Solving for k, Initial residual = 0.000190099, Final residual = 1.38806e-05, No Iterations 3
ExecutionTime = 28.0287 s  ClockTime = 28 s

Time = 102s

smoothSolver:  Solving for Ux, Initial residual = 0.000425226, Final residual = 4.09153e-06, No Iterations 4
smoothSolver:  Solving for Uy, Initial residual = 0.00151415, Final residual = 1.45864e-05, No Iterations 4
GAMG:  Solving for p, Initial residual = 0.00274013, Final residual = 0.000258136, No Iterations 1
time step continuity errors : sum local = 0.00019834, global = 8.65177e-06, cumulative = -0.0125085
smoothSolver:  Solving for omega, Initial residual = 1.15431e-05, Final residual = 4.55788e-06, No Iterations 1
smoothSolver:  Solving for k, Initial residual = 0.000186811, Final residual = 1.36549e-05, No Iterations 3
ExecutionTime = 28.271 s  ClockTime = 28 s

Time = 103s

smoothSolver:  Solving for Ux, Initial residual = 0.000422365, Final residual = 4.05693e-06, No Iterations 4
smoothSolver:  Solving for Uy, Initial residual = 0.00150884, Final residual = 1.4525e-05, No Iterations 4
GAMG:  Solving for p, Initial residual = 0.00273406, Final residual = 0.000133294, No Iterations 2
time step continuity errors : sum local = 0.000102443, global = 4.78387e-06, cumulative = -0.0125037
smoothSolver:  Solving for omega, Initial residual = 1.13445e-05, Final residual = 4.49101e-06, No Iterations 1
smoothSolver:  Solving for k, Initial residual = 0.000183871, Final residual = 1.34253e-05, No Iterations 3
ExecutionTime = 28.5604 s  ClockTime = 29 s

Time = 104s

smoothSolver:  Solving for Ux, Initial residual = 0.000420195, Final residual = 4.02849e-06, No Iterations 4
smoothSolver:  Solving for Uy, Initial residual = 0.00149366, Final residual = 1.43664e-05, No Iterations 4
GAMG:  Solving for p, Initial residual = 0.00267926, Final residual = 0.000261248, No Iterations 1
time step continuity errors : sum local = 0.000200929, global = 3.22701e-06, cumulative = -0.0125005
smoothSolver:  Solving for omega, Initial residual = 1.12154e-05, Final residual = 4.43398e-06, No Iterations 1
smoothSolver:  Solving for k, Initial residual = 0.000180881, Final residual = 1.32031e-05, No Iterations 3
ExecutionTime = 28.8389 s  ClockTime = 29 s

Time = 105s

smoothSolver:  Solving for Ux, Initial residual = 0.000417623, Final residual = 3.99629e-06, No Iterations 4
smoothSolver:  Solving for Uy, Initial residual = 0.0014854, Final residual = 1.42682e-05, No Iterations 4
GAMG:  Solving for p, Initial residual = 0.00268618, Final residual = 0.000137875, No Iterations 2
time step continuity errors : sum local = 0.000106073, global = 3.82676e-09, cumulative = -0.0125005
smoothSolver:  Solving for omega, Initial residual = 1.10256e-05, Final residual = 4.36786e-06, No Iterations 1
smoothSolver:  Solving for k, Initial residual = 0.000178475, Final residual = 1.30019e-05, No Iterations 3
ExecutionTime = 29.1627 s  ClockTime = 29 s

Time = 106s

smoothSolver:  Solving for Ux, Initial residual = 0.00041612, Final residual = 3.97395e-06, No Iterations 4
smoothSolver:  Solving for Uy, Initial residual = 0.00146643, Final residual = 1.40541e-05, No Iterations 4
GAMG:  Solving for p, Initial residual = 0.00263244, Final residual = 0.000119312, No Iterations 2
time step continuity errors : sum local = 9.18353e-05, global = -1.97461e-06, cumulative = -0.0125024
smoothSolver:  Solving for omega, Initial residual = 1.08813e-05, Final residual = 4.3062e-06, No Iterations 1
smoothSolver:  Solving for k, Initial residual = 0.000176086, Final residual = 1.27915e-05, No Iterations 3
ExecutionTime = 29.4245 s  ClockTime = 30 s

Time = 107s

smoothSolver:  Solving for Ux, Initial residual = 0.000414363, Final residual = 3.95096e-06, No Iterations 4
smoothSolver:  Solving for Uy, Initial residual = 0.00144933, Final residual = 1.38508e-05, No Iterations 4
GAMG:  Solving for p, Initial residual = 0.00259293, Final residual = 0.000236796, No Iterations 1
time step continuity errors : sum local = 0.000182319, global = -3.52565e-06, cumulative = -0.012506
smoothSolver:  Solving for omega, Initial residual = 1.07463e-05, Final residual = 4.2507e-06, No Iterations 1
smoothSolver:  Solving for k, Initial residual = 0.000173619, Final residual = 1.25829e-05, No Iterations 3
ExecutionTime = 29.6831 s  ClockTime = 30 s

Time = 108s

smoothSolver:  Solving for Ux, Initial residual = 0.000411903, Final residual = 3.92214e-06, No Iterations 4
smoothSolver:  Solving for Uy, Initial residual = 0.00144258, Final residual = 1.37404e-05, No Iterations 4
GAMG:  Solving for p, Initial residual = 0.00257712, Final residual = 0.000114841, No Iterations 2
time step continuity errors : sum local = 8.84302e-05, global = -4.48658e-06, cumulative = -0.0125104
smoothSolver:  Solving for omega, Initial residual = 1.05984e-05, Final residual = 4.19532e-06, No Iterations 1
smoothSolver:  Solving for k, Initial residual = 0.000171087, Final residual = 1.23819e-05, No Iterations 3
ExecutionTime = 29.9545 s  ClockTime = 30 s

Time = 109s

smoothSolver:  Solving for Ux, Initial residual = 0.000410435, Final residual = 3.90108e-06, No Iterations 4
smoothSolver:  Solving for Uy, Initial residual = 0.00142932, Final residual = 1.35783e-05, No Iterations 4
GAMG:  Solving for p, Initial residual = 0.00254042, Final residual = 0.000243224, No Iterations 1
time step continuity errors : sum local = 0.000187268, global = -3.98321e-06, cumulative = -0.0125144
smoothSolver:  Solving for omega, Initial residual = 1.05227e-05, Final residual = 4.15048e-06, No Iterations 1
smoothSolver:  Solving for k, Initial residual = 0.000169386, Final residual = 1.21973e-05, No Iterations 3
ExecutionTime = 30.2065 s  ClockTime = 30 s

Time = 110s

smoothSolver:  Solving for Ux, Initial residual = 0.00040823, Final residual = 3.87534e-06, No Iterations 4
smoothSolver:  Solving for Uy, Initial residual = 0.00142379, Final residual = 1.34842e-05, No Iterations 4
GAMG:  Solving for p, Initial residual = 0.00253922, Final residual = 0.000120411, No Iterations 2
time step continuity errors : sum local = 9.27046e-05, global = -4.17078e-06, cumulative = -0.0125186
smoothSolver:  Solving for omega, Initial residual = 1.035e-05, Final residual = 4.0936e-06, No Iterations 1
smoothSolver:  Solving for k, Initial residual = 0.000166577, Final residual = 1.19891e-05, No Iterations 3
ExecutionTime = 30.477 s  ClockTime = 31 s

Time = 111s

smoothSolver:  Solving for Ux, Initial residual = 0.000407069, Final residual = 3.86017e-06, No Iterations 4
smoothSolver:  Solving for Uy, Initial residual = 0.00141272, Final residual = 1.33574e-05, No Iterations 4
GAMG:  Solving for p, Initial residual = 0.00250819, Final residual = 0.000236617, No Iterations 1
time step continuity errors : sum local = 0.000182078, global = -1.09214e-06, cumulative = -0.0125197
smoothSolver:  Solving for omega, Initial residual = 1.02144e-05, Final residual = 4.03097e-06, No Iterations 1
smoothSolver:  Solving for k, Initial residual = 0.00016386, Final residual = 1.17806e-05, No Iterations 3
ExecutionTime = 30.8005 s  ClockTime = 31 s

Time = 112s

smoothSolver:  Solving for Ux, Initial residual = 0.000404927, Final residual = 3.83578e-06, No Iterations 4
smoothSolver:  Solving for Uy, Initial residual = 0.00140754, Final residual = 1.32765e-05, No Iterations 4
GAMG:  Solving for p, Initial residual = 0.0024923, Final residual = 0.000119461, No Iterations 2
time step continuity errors : sum local = 9.19112e-05, global = -2.09785e-06, cumulative = -0.0125218
[...]
smoothSolver:  Solving for k, Initial residual = 4.10895e-05, Final residual = 7.22328e-06, No Iterations 2
bounding k, min: -0.0145456 max: 14.3078 average: 1.37144
ExecutionTime = 121.293 s  ClockTime = 122 s

Time = 466s

smoothSolver:  Solving for Ux, Initial residual = 8.94214e-05, Final residual = 9.04445e-06, No Iterations 2
smoothSolver:  Solving for Uy, Initial residual = 0.000215423, Final residual = 1.94622e-06, No Iterations 4
GAMG:  Solving for p, Initial residual = 0.00109882, Final residual = 0.000109251, No Iterations 1
time step continuity errors : sum local = 8.81303e-05, global = -5.04426e-06, cumulative = -0.0131716
smoothSolver:  Solving for omega, Initial residual = 9.448e-06, Final residual = 9.448e-06, No Iterations 0
smoothSolver:  Solving for k, Initial residual = 4.08845e-05, Final residual = 7.17943e-06, No Iterations 2
bounding k, min: -0.0139026 max: 14.2972 average: 1.37262
ExecutionTime = 121.559 s  ClockTime = 122 s

Time = 467s

smoothSolver:  Solving for Ux, Initial residual = 8.88918e-05, Final residual = 8.99874e-06, No Iterations 2
smoothSolver:  Solving for Uy, Initial residual = 0.000214392, Final residual = 1.9301e-06, No Iterations 4
GAMG:  Solving for p, Initial residual = 0.00109357, Final residual = 5.1239e-05, No Iterations 2
time step continuity errors : sum local = 4.13299e-05, global = -3.12457e-06, cumulative = -0.0131747
smoothSolver:  Solving for omega, Initial residual = 9.50526e-06, Final residual = 9.50526e-06, No Iterations 0
smoothSolver:  Solving for k, Initial residual = 4.07586e-05, Final residual = 7.14778e-06, No Iterations 2
bounding k, min: -0.0133046 max: 14.2866 average: 1.37379
ExecutionTime = 121.803 s  ClockTime = 122 s

Time = 468s

smoothSolver:  Solving for Ux, Initial residual = 8.80763e-05, Final residual = 8.91022e-06, No Iterations 2
smoothSolver:  Solving for Uy, Initial residual = 0.000209278, Final residual = 1.87257e-06, No Iterations 4
GAMG:  Solving for p, Initial residual = 0.00109447, Final residual = 8.54855e-05, No Iterations 1
time step continuity errors : sum local = 6.89078e-05, global = -3.32253e-06, cumulative = -0.013178
smoothSolver:  Solving for omega, Initial residual = 9.56742e-06, Final residual = 9.56742e-06, No Iterations 0
smoothSolver:  Solving for k, Initial residual = 4.0734e-05, Final residual = 7.1257e-06, No Iterations 2
bounding k, min: -0.0128266 max: 14.2761 average: 1.37496
ExecutionTime = 122.042 s  ClockTime = 122 s

Time = 469s

smoothSolver:  Solving for Ux, Initial residual = 8.76787e-05, Final residual = 8.871e-06, No Iterations 2
smoothSolver:  Solving for Uy, Initial residual = 0.000207435, Final residual = 1.85353e-06, No Iterations 4
GAMG:  Solving for p, Initial residual = 0.00108456, Final residual = 9.12651e-05, No Iterations 1
time step continuity errors : sum local = 7.35611e-05, global = -2.34e-06, cumulative = -0.0131804
smoothSolver:  Solving for omega, Initial residual = 9.62559e-06, Final residual = 9.62559e-06, No Iterations 0
smoothSolver:  Solving for k, Initial residual = 4.05444e-05, Final residual = 7.09709e-06, No Iterations 2
bounding k, min: -0.0126236 max: 14.2655 average: 1.37612
ExecutionTime = 122.279 s  ClockTime = 123 s

Time = 470s

smoothSolver:  Solving for Ux, Initial residual = 8.72853e-05, Final residual = 8.83467e-06, No Iterations 2
smoothSolver:  Solving for Uy, Initial residual = 0.000205849, Final residual = 1.83747e-06, No Iterations 4
GAMG:  Solving for p, Initial residual = 0.00107406, Final residual = 9.78484e-05, No Iterations 1
time step continuity errors : sum local = 7.88621e-05, global = -1.65598e-06, cumulative = -0.013182
smoothSolver:  Solving for omega, Initial residual = 9.68276e-06, Final residual = 9.68276e-06, No Iterations 0
smoothSolver:  Solving for k, Initial residual = 4.04219e-05, Final residual = 7.0691e-06, No Iterations 2
bounding k, min: -0.0125306 max: 14.255 average: 1.37729
ExecutionTime = 122.516 s  ClockTime = 123 s

Time = 471s

smoothSolver:  Solving for Ux, Initial residual = 8.69404e-05, Final residual = 8.80089e-06, No Iterations 2
smoothSolver:  Solving for Uy, Initial residual = 0.00020452, Final residual = 1.82695e-06, No Iterations 4
GAMG:  Solving for p, Initial residual = 0.00106755, Final residual = 0.000101178, No Iterations 1
time step continuity errors : sum local = 8.15408e-05, global = -1.13594e-06, cumulative = -0.0131832
smoothSolver:  Solving for omega, Initial residual = 9.74001e-06, Final residual = 9.74001e-06, No Iterations 0
smoothSolver:  Solving for k, Initial residual = 4.02794e-05, Final residual = 7.04291e-06, No Iterations 2
bounding k, min: -0.0125608 max: 14.2445 average: 1.37845
ExecutionTime = 122.778 s  ClockTime = 123 s

Time = 472s

smoothSolver:  Solving for Ux, Initial residual = 8.66366e-05, Final residual = 8.76376e-06, No Iterations 2
smoothSolver:  Solving for Uy, Initial residual = 0.000203499, Final residual = 1.82209e-06, No Iterations 4
GAMG:  Solving for p, Initial residual = 0.00106474, Final residual = 0.000104081, No Iterations 1
time step continuity errors : sum local = 8.38761e-05, global = -7.65659e-07, cumulative = -0.0131839
smoothSolver:  Solving for omega, Initial residual = 9.79653e-06, Final residual = 9.79653e-06, No Iterations 0
smoothSolver:  Solving for k, Initial residual = 4.0299e-05, Final residual = 7.02749e-06, No Iterations 2
bounding k, min: -0.0124616 max: 14.234 average: 1.3796
ExecutionTime = 123.017 s  ClockTime = 123 s

Time = 473s

smoothSolver:  Solving for Ux, Initial residual = 8.63599e-05, Final residual = 8.72703e-06, No Iterations 2
smoothSolver:  Solving for Uy, Initial residual = 0.000202774, Final residual = 1.8164e-06, No Iterations 4
GAMG:  Solving for p, Initial residual = 0.00106352, Final residual = 4.22186e-05, No Iterations 2
time step continuity errors : sum local = 3.40217e-05, global = 8.16784e-07, cumulative = -0.0131831
smoothSolver:  Solving for omega, Initial residual = 9.85136e-06, Final residual = 9.85136e-06, No Iterations 0
smoothSolver:  Solving for k, Initial residual = 4.01196e-05, Final residual = 6.99833e-06, No Iterations 2
bounding k, min: -0.0123632 max: 14.2236 average: 1.38076
ExecutionTime = 123.265 s  ClockTime = 123 s

Time = 474s

smoothSolver:  Solving for Ux, Initial residual = 8.61214e-05, Final residual = 8.70095e-06, No Iterations 2
smoothSolver:  Solving for Uy, Initial residual = 0.000203065, Final residual = 1.80756e-06, No Iterations 4
GAMG:  Solving for p, Initial residual = 0.00106021, Final residual = 8.11139e-05, No Iterations 1
time step continuity errors : sum local = 6.53599e-05, global = 8.87879e-07, cumulative = -0.0131822
smoothSolver:  Solving for omega, Initial residual = 9.90826e-06, Final residual = 9.90826e-06, No Iterations 0
smoothSolver:  Solving for k, Initial residual = 3.99881e-05, Final residual = 6.96977e-06, No Iterations 2
bounding k, min: -0.0126999 max: 14.2131 average: 1.38191
ExecutionTime = 123.501 s  ClockTime = 124 s

Time = 475s

smoothSolver:  Solving for Ux, Initial residual = 8.59156e-05, Final residual = 8.6867e-06, No Iterations 2
smoothSolver:  Solving for Uy, Initial residual = 0.000202758, Final residual = 1.80036e-06, No Iterations 4
GAMG:  Solving for p, Initial residual = 0.0010597, Final residual = 9.14547e-05, No Iterations 1
time step continuity errors : sum local = 7.36944e-05, global = 1.22523e-06, cumulative = -0.013181
smoothSolver:  Solving for omega, Initial residual = 9.96478e-06, Final residual = 9.96478e-06, No Iterations 0
smoothSolver:  Solving for k, Initial residual = 3.99516e-05, Final residual = 6.95469e-06, No Iterations 2
bounding k, min: -0.0131553 max: 14.2028 average: 1.38306
ExecutionTime = 123.75 s  ClockTime = 124 s

Time = 476s

smoothSolver:  Solving for Ux, Initial residual = 8.57001e-05, Final residual = 8.67341e-06, No Iterations 2
smoothSolver:  Solving for Uy, Initial residual = 0.000203002, Final residual = 1.79807e-06, No Iterations 4
GAMG:  Solving for p, Initial residual = 0.00105837, Final residual = 0.000103742, No Iterations 1
time step continuity errors : sum local = 8.36e-05, global = 1.24086e-06, cumulative = -0.0131798
smoothSolver:  Solving for omega, Initial residual = 1.00207e-05, Final residual = 3.17883e-06, No Iterations 1
bounding omega, min: -57.7966 max: 1.27035e+07 average: 138065
smoothSolver:  Solving for k, Initial residual = 4.10827e-05, Final residual = 7.11484e-06, No Iterations 2
bounding k, min: -0.0132762 max: 14.1915 average: 1.38414
ExecutionTime = 123.99 s  ClockTime = 124 s

Time = 477s

smoothSolver:  Solving for Ux, Initial residual = 8.55574e-05, Final residual = 8.66633e-06, No Iterations 2
smoothSolver:  Solving for Uy, Initial residual = 0.000203241, Final residual = 1.80146e-06, No Iterations 4
GAMG:  Solving for p, Initial residual = 0.00105836, Final residual = 4.54549e-05, No Iterations 2
time step continuity errors : sum local = 3.66327e-05, global = 2.07673e-06, cumulative = -0.0131777
smoothSolver:  Solving for omega, Initial residual = 7.25317e-06, Final residual = 7.25317e-06, No Iterations 0
smoothSolver:  Solving for k, Initial residual = 4.18152e-05, Final residual = 7.18152e-06, No Iterations 2
bounding k, min: -0.0131462 max: 14.1797 average: 1.38534
ExecutionTime = 124.251 s  ClockTime = 124 s

Time = 478s

smoothSolver:  Solving for Ux, Initial residual = 8.59077e-05, Final residual = 8.70469e-06, No Iterations 2
smoothSolver:  Solving for Uy, Initial residual = 0.000206336, Final residual = 1.82498e-06, No Iterations 4
GAMG:  Solving for p, Initial residual = 0.00105493, Final residual = 8.6432e-05, No Iterations 1
time step continuity errors : sum local = 6.96944e-05, global = 1.82117e-06, cumulative = -0.0131759
smoothSolver:  Solving for omega, Initial residual = 7.30893e-06, Final residual = 7.30893e-06, No Iterations 0
smoothSolver:  Solving for k, Initial residual = 4.16421e-05, Final residual = 7.16206e-06, No Iterations 2
bounding k, min: -0.0127123 max: 14.1678 average: 1.38653
ExecutionTime = 124.485 s  ClockTime = 125 s

Time = 479s

smoothSolver:  Solving for Ux, Initial residual = 8.57296e-05, Final residual = 8.69422e-06, No Iterations 2
smoothSolver:  Solving for Uy, Initial residual = 0.000206561, Final residual = 1.82588e-06, No Iterations 4
GAMG:  Solving for p, Initial residual = 0.00103538, Final residual = 9.315e-05, No Iterations 1
time step continuity errors : sum local = 7.5122e-05, global = 1.57029e-06, cumulative = -0.0131743
smoothSolver:  Solving for omega, Initial residual = 7.36645e-06, Final residual = 7.36645e-06, No Iterations 0
smoothSolver:  Solving for k, Initial residual = 4.14104e-05, Final residual = 7.11743e-06, No Iterations 2
bounding k, min: -0.0120196 max: 14.1559 average: 1.38772
ExecutionTime = 124.736 s  ClockTime = 125 s

Time = 480s

smoothSolver:  Solving for Ux, Initial residual = 8.55018e-05, Final residual = 8.68195e-06, No Iterations 2
smoothSolver:  Solving for Uy, Initial residual = 0.000206324, Final residual = 1.82871e-06, No Iterations 4
GAMG:  Solving for p, Initial residual = 0.00101998, Final residual = 0.000101914, No Iterations 1
time step continuity errors : sum local = 8.22011e-05, global = 9.10273e-07, cumulative = -0.0131734
smoothSolver:  Solving for omega, Initial residual = 7.42359e-06, Final residual = 7.42359e-06, No Iterations 0
smoothSolver:  Solving for k, Initial residual = 4.13598e-05, Final residual = 7.11777e-06, No Iterations 2
bounding k, min: -0.0112627 max: 14.1441 average: 1.38891
ExecutionTime = 124.971 s  ClockTime = 125 s

Time = 481s

smoothSolver:  Solving for Ux, Initial residual = 8.52481e-05, Final residual = 8.65848e-06, No Iterations 2
smoothSolver:  Solving for Uy, Initial residual = 0.000206115, Final residual = 1.83103e-06, No Iterations 4
GAMG:  Solving for p, Initial residual = 0.00101506, Final residual = 4.7019e-05, No Iterations 2
time step continuity errors : sum local = 3.79292e-05, global = 1.83563e-06, cumulative = -0.0131716
smoothSolver:  Solving for omega, Initial residual = 7.47769e-06, Final residual = 7.47769e-06, No Iterations 0
smoothSolver:  Solving for k, Initial residual = 4.10683e-05, Final residual = 7.05987e-06, No Iterations 2
bounding k, min: -0.0107145 max: 14.1324 average: 1.39009
ExecutionTime = 125.235 s  ClockTime = 125 s

Time = 482s

smoothSolver:  Solving for Ux, Initial residual = 8.50617e-05, Final residual = 8.63926e-06, No Iterations 2
smoothSolver:  Solving for Uy, Initial residual = 0.000208957, Final residual = 1.87037e-06, No Iterations 4
GAMG:  Solving for p, Initial residual = 0.0010141, Final residual = 7.90668e-05, No Iterations 1
time step continuity errors : sum local = 6.38201e-05, global = 5.06514e-07, cumulative = -0.0131711
smoothSolver:  Solving for omega, Initial residual = 7.53316e-06, Final residual = 7.53316e-06, No Iterations 0
smoothSolver:  Solving for k, Initial residual = 4.08488e-05, Final residual = 7.02512e-06, No Iterations 2
bounding k, min: -0.0103317 max: 14.1208 average: 1.39126
ExecutionTime = 125.465 s  ClockTime = 126 s

Time = 483s

smoothSolver:  Solving for Ux, Initial residual = 8.47809e-05, Final residual = 8.6146e-06, No Iterations 2
smoothSolver:  Solving for Uy, Initial residual = 0.000208677, Final residual = 1.86944e-06, No Iterations 4
GAMG:  Solving for p, Initial residual = 0.00100821, Final residual = 8.66425e-05, No Iterations 1
time step continuity errors : sum local = 6.9943e-05, global = -1.75171e-08, cumulative = -0.0131711
smoothSolver:  Solving for omega, Initial residual = 7.58789e-06, Final residual = 7.58789e-06, No Iterations 0
smoothSolver:  Solving for k, Initial residual = 4.06085e-05, Final residual = 6.98697e-06, No Iterations 2
bounding k, min: -0.0101336 max: 14.1091 average: 1.39243
ExecutionTime = 125.705 s  ClockTime = 126 s

Time = 484s

smoothSolver:  Solving for Ux, Initial residual = 8.45733e-05, Final residual = 8.58766e-06, No Iterations 2
smoothSolver:  Solving for Uy, Initial residual = 0.000208101, Final residual = 1.86488e-06, No Iterations 4
GAMG:  Solving for p, Initial residual = 0.00101189, Final residual = 9.65697e-05, No Iterations 1
time step continuity errors : sum local = 7.79633e-05, global = -7.47347e-07, cumulative = -0.0131718
smoothSolver:  Solving for omega, Initial residual = 7.64267e-06, Final residual = 7.64267e-06, No Iterations 0
smoothSolver:  Solving for k, Initial residual = 4.04115e-05, Final residual = 6.94918e-06, No Iterations 2
bounding k, min: -0.00995591 max: 14.098 average: 1.39358
ExecutionTime = 125.947 s  ClockTime = 126 s

Time = 485s

smoothSolver:  Solving for Ux, Initial residual = 8.43652e-05, Final residual = 8.56131e-06, No Iterations 2
smoothSolver:  Solving for Uy, Initial residual = 0.000207407, Final residual = 1.85503e-06, No Iterations 4
GAMG:  Solving for p, Initial residual = 0.0010147, Final residual = 3.94749e-05, No Iterations 2
time step continuity errors : sum local = 3.18709e-05, global = 5.42743e-07, cumulative = -0.0131713
smoothSolver:  Solving for omega, Initial residual = 7.69707e-06, Final residual = 7.69707e-06, No Iterations 0
smoothSolver:  Solving for k, Initial residual = 4.03221e-05, Final residual = 6.92805e-06, No Iterations 2
bounding k, min: -0.00990602 max: 14.087 average: 1.39473
ExecutionTime = 126.191 s  ClockTime = 126 s

Time = 486s

smoothSolver:  Solving for Ux, Initial residual = 8.40876e-05, Final residual = 8.53005e-06, No Iterations 2
smoothSolver:  Solving for Uy, Initial residual = 0.000207109, Final residual = 1.85087e-06, No Iterations 4
GAMG:  Solving for p, Initial residual = 0.00100269, Final residual = 7.92222e-05, No Iterations 1
time step continuity errors : sum local = 6.39642e-05, global = -7.79055e-07, cumulative = -0.0131721
smoothSolver:  Solving for omega, Initial residual = 7.75176e-06, Final residual = 7.75176e-06, No Iterations 0
smoothSolver:  Solving for k, Initial residual = 4.0102e-05, Final residual = 6.89624e-06, No Iterations 2
bounding k, min: -0.0104762 max: 14.0758 average: 1.39587
ExecutionTime = 126.448 s  ClockTime = 127 s

Time = 487s

smoothSolver:  Solving for Ux, Initial residual = 8.37455e-05, Final residual = 8.49638e-06, No Iterations 2
smoothSolver:  Solving for Uy, Initial residual = 0.000205547, Final residual = 1.83853e-06, No Iterations 4
GAMG:  Solving for p, Initial residual = 0.00100521, Final residual = 8.94717e-05, No Iterations 1
time step continuity errors : sum local = 7.22418e-05, global = -1.3648e-06, cumulative = -0.0131734
smoothSolver:  Solving for omega, Initial residual = 7.80624e-06, Final residual = 7.80624e-06, No Iterations 0
smoothSolver:  Solving for k, Initial residual = 3.99767e-05, Final residual = 6.87352e-06, No Iterations 2
bounding k, min: -0.0108616 max: 14.0646 average: 1.397
ExecutionTime = 126.682 s  ClockTime = 127 s

Time = 488s

smoothSolver:  Solving for Ux, Initial residual = 8.33769e-05, Final residual = 8.46094e-06, No Iterations 2
smoothSolver:  Solving for Uy, Initial residual = 0.000204166, Final residual = 1.82454e-06, No Iterations 4
GAMG:  Solving for p, Initial residual = 0.00101059, Final residual = 0.000100139, No Iterations 1
time step continuity errors : sum local = 8.08556e-05, global = -2.51075e-06, cumulative = -0.0131759
smoothSolver:  Solving for omega, Initial residual = 7.86012e-06, Final residual = 7.86012e-06, No Iterations 0
smoothSolver:  Solving for k, Initial residual = 3.9772e-05, Final residual = 6.83943e-06, No Iterations 2
bounding k, min: -0.0109448 max: 14.0534 average: 1.39812
ExecutionTime = 126.93 s  ClockTime = 127 s

Time = 489s

smoothSolver:  Solving for Ux, Initial residual = 8.30721e-05, Final residual = 8.43479e-06, No Iterations 2
smoothSolver:  Solving for Uy, Initial residual = 0.000202761, Final residual = 1.80759e-06, No Iterations 4
GAMG:  Solving for p, Initial residual = 0.00101444, Final residual = 4.53243e-05, No Iterations 2
time step continuity errors : sum local = 3.65956e-05, global = -1.12123e-06, cumulative = -0.013177
smoothSolver:  Solving for omega, Initial residual = 7.91519e-06, Final residual = 7.91519e-06, No Iterations 0
smoothSolver:  Solving for k, Initial residual = 3.9582e-05, Final residual = 6.81071e-06, No Iterations 2
bounding k, min: -0.0107492 max: 14.0419 average: 1.39923
ExecutionTime = 127.175 s  ClockTime = 127 s

Time = 490s

smoothSolver:  Solving for Ux, Initial residual = 8.26827e-05, Final residual = 8.40333e-06, No Iterations 2
smoothSolver:  Solving for Uy, Initial residual = 0.000198541, Final residual = 1.76674e-06, No Iterations 4
GAMG:  Solving for p, Initial residual = 0.00101277, Final residual = 7.69579e-05, No Iterations 1
time step continuity errors : sum local = 6.21063e-05, global = -2.75936e-06, cumulative = -0.0131798
smoothSolver:  Solving for omega, Initial residual = 7.96912e-06, Final residual = 7.96912e-06, No Iterations 0
smoothSolver:  Solving for k, Initial residual = 3.95002e-05, Final residual = 6.79719e-06, No Iterations 2
bounding k, min: -0.0103386 max: 14.0301 average: 1.40033
ExecutionTime = 127.432 s  ClockTime = 128 s

Time = 491s

smoothSolver:  Solving for Ux, Initial residual = 8.23774e-05, Final residual = 8.37677e-06, No Iterations 2
smoothSolver:  Solving for Uy, Initial residual = 0.000196464, Final residual = 1.75096e-06, No Iterations 4
GAMG:  Solving for p, Initial residual = 0.000997194, Final residual = 8.41809e-05, No Iterations 1
time step continuity errors : sum local = 6.79333e-05, global = -3.15565e-06, cumulative = -0.013183
smoothSolver:  Solving for omega, Initial residual = 8.02358e-06, Final residual = 8.02358e-06, No Iterations 0
smoothSolver:  Solving for k, Initial residual = 3.93228e-05, Final residual = 6.76009e-06, No Iterations 2
bounding k, min: -0.00965743 max: 14.0183 average: 1.40141
ExecutionTime = 127.67 s  ClockTime = 128 s


SIMPLE solution converged in 491 iterations

End

